<?xml version="1.0" ?>
<routes>
	<vType id="pedestrian_type" vClass="pedestrian" maxSpeed="1.39" length="0.5" width="0.6" guiShape="pedestrian"/>
	<vType id="bicycle_type" vClass="bicycle" maxSpeed="5.55" length="1.8" width="0.6" guiShape="bicycle"/>
	<person id="1" type="pedestrian_type" depart="0.0" departPos="113.56342582731735" departSpeed="2.5787466127679446">
		<walk from="EB_West" to="EB_East" departPosLat="0.1368960185832706"/>
	</person>
	<person id="2" type="pedestrian_type" depart="3.1" departPos="68.58943457128116" departSpeed="2.759321969461503">
		<walk from="WB_East" to="WB_West" departPosLat="0.3165235828111803"/>
	</person>
	<person id="3" type="pedestrian_type" depart="3.4" departPos="62.33158282957338" departSpeed="0.9090832882783668">
		<walk from="WB_West" to="WB_East" departPosLat="-0.8239498075775598"/>
	</person>
	<vType id="4" accel="0.790000356" decel="2.0" length="4.5" minGap="2.0" tau="0.8" maxSpeed="32.56367087" carFollowModel="IDM" guiShape="passenger" vClass="passenger"/>
	<trip id="4" type="4" depart="3.8" from="NB_South" to="WB_West" departLane="best" departSpeed="max"/>
	<vType id="5" accel="0.54876797" decel="2.0" length="4.5" minGap="2.0" tau="0.8" maxSpeed="23.31892814" carFollowModel="IDM" guiShape="passenger" vClass="passenger"/>
	<trip id="5" type="5" depart="4.1" from="SB_North" to="SB_South" departLane="best" departSpeed="max"/>
	<vType id="6" accel="1.571255856" decel="2.0" length="4.5" minGap="5.165910689" tau="1.572899785" maxSpeed="24.12461603" carFollowModel="IDM" guiShape="passenger" vClass="passenger"/>
	<trip id="6" type="6" depart="8.2" from="EB_West" to="NB_North" departLane="best" departSpeed="max"/>
	<person id="7" type="pedestrian_type" depart="8.7" departPos="116.56009122521846" departSpeed="2.0916022871020465">
		<walk from="NB_North" to="NB_South" departPosLat="-1.612961357115097"/>
	</person>
	<vType id="8" accel="3.487212494" decel="2.303262347" length="12.0" minGap="2.605767445" tau="1.912087511" maxSpeed="24.85295808" carFollowModel="IDM" guiShape="truck" vClass="truck"/>
	<trip id="8" type="8" depart="9.2" from="EB_West" to="EB_East" departLane="best" departSpeed="max"/>
	<vType id="9" accel="1.401666403" decel="2.718149618" length="4.5" minGap="2.0" tau="0.8" maxSpeed="31.30784525" carFollowModel="IDM" guiShape="passenger" vClass="passenger"/>
	<trip id="9" type="9" depart="10.4" from="WB_East" to="WB_West" departLane="best" departSpeed="max"/>
	<vType id="10" accel="0.54876797" decel="2.0" length="4.5" minGap="2.0" tau="0.8" maxSpeed="23.31892814" carFollowModel="IDM" guiShape="passenger" vClass="passenger"/>
	<trip id="10" type="10" depart="10.7" from="EB_West" to="EB_East" departLane="best" departSpeed="max"/>
	<vType id="11" accel="0.790000356" decel="2.0" length="4.5" minGap="2.0" tau="0.8" maxSpeed="32.56367087" carFollowModel="IDM" guiShape="passenger" vClass="passenger"/>
	<trip id="11" type="11" depart="11.2" from="WB_East" to="SB_South" departLane="best" departSpeed="max"/>
	<person id="12" type="pedestrian_type" depart="13.5" departPos="117.51721790507113" departSpeed="2.608235784353486">
		<walk from="SB_South" to="SB_North" departPosLat="0.3356433070764222"/>
	</person>
	<vType id="13" accel="0.782949981" decel="2.605659833" length="4.5" minGap="5.044717767" tau="2.00991476" maxSpeed="32.07501444" carFollowModel="IDM" guiShape="passenger" vClass="passenger"/>
	<trip id="13" type="13" depart="14.0" from="SB_North" to="SB_South" departLane="best" departSpeed="max"/>
	<vType id="14" accel="3.432127171" decel="2.515299395" length="4.5" minGap="2.222171232" tau="0.8" maxSpeed="29.46205864" carFollowModel="IDM" guiShape="passenger" vClass="passenger"/>
	<trip id="14" type="14" depart="16.6" from="WB_East" to="WB_West" departLane="best" departSpeed="max"/>
	<vType id="15" accel="1.519535331" decel="2.0" length="4.5" minGap="2.361227945" tau="1.526270676" maxSpeed="34.11596117" carFollowModel="IDM" guiShape="passenger" vClass="passenger"/>
	<trip id="15" type="15" depart="17.6" from="SB_North" to="SB_South" departLane="best" departSpeed="max"/>
	<person id="16" type="pedestrian_type" depart="17.8" departPos="52.80571600871873" departSpeed="0.7184141431638067">
		<walk from="SB_South" to="SB_North" departPosLat="1.2567880477877367"/>
	</person>
	<vType id="17" accel="1.401666403" decel="2.718149618" length="4.5" minGap="2.0" tau="0.8" maxSpeed="31.30784525" carFollowModel="IDM" guiShape="passenger" vClass="passenger"/>
	<trip id="17" type="17" depart="18.6" from="NB_South" to="NB_North" departLane="best" departSpeed="max"/>
	<vType id="18" accel="3.432127171" decel="2.515299395" length="4.5" minGap="2.222171232" tau="0.8" maxSpeed="29.46205864" carFollowModel="IDM" guiShape="passenger" vClass="passenger"/>
	<trip id="18" type="18" depart="18.8" from="WB_East" to="WB_West" departLane="best" departSpeed="max"/>
	<person id="19" type="pedestrian_type" depart="20.1" departPos="11.495718604749358" departSpeed="1.8966470490280203">
		<walk from="WB_West" to="WB_East" departPosLat="-1.0163101262136016"/>
	</person>
	<person id="20" type="pedestrian_type" depart="20.3" departPos="33.7972218582034" departSpeed="1.8212747693788163">
		<walk from="SB_North" to="SB_South" departPosLat="0.040585901872194796"/>
	</person>
	<vType id="21" accel="0.49294451" decel="2.0" length="4.5" minGap="5.230195259" tau="2.154828616" maxSpeed="33.0906324" carFollowModel="IDM" guiShape="passenger" vClass="passenger"/>
	<trip id="21" type="21" depart="22.4" from="EB_West" to="EB_East" departLane="best" departSpeed="max"/>
	<vType id="22" accel="3.432127171" decel="2.515299395" length="4.5" minGap="2.222171232" tau="0.8" maxSpeed="29.46205864" carFollowModel="IDM" guiShape="passenger" vClass="passenger"/>
	<trip id="22" type="22" depart="23.8" from="SB_North" to="EB_East" departLane="best" departSpeed="max"/>
	<vType id="23" accel="0.929250273" decel="3.370283615" length="4.5" minGap="2.0" tau="2.298785284" maxSpeed="32.29103128" carFollowModel="IDM" guiShape="passenger" vClass="passenger"/>
	<trip id="23" type="23" depart="24.3" from="NB_South" to="WB_West" departLane="best" departSpeed="max"/>
	<vType id="24" accel="2.560055747" decel="3.402960294" length="4.5" minGap="5.113774719" tau="1.996257282" maxSpeed="23.44684054" carFollowModel="IDM" guiShape="passenger" vClass="passenger"/>
	<trip id="24" type="24" depart="28.5" from="WB_East" to="WB_West" departLane="best" departSpeed="max"/>
	<vType id="25" accel="1.141636332" decel="3.052127647" length="4.5" minGap="2.0" tau="0.8" maxSpeed="33.0548302" carFollowModel="IDM" guiShape="passenger" vClass="passenger"/>
	<trip id="25" type="25" depart="28.6" from="SB_North" to="SB_South" departLane="best" departSpeed="max"/>
	<vType id="26" accel="0.929250273" decel="3.370283615" length="4.5" minGap="2.0" tau="2.298785284" maxSpeed="32.29103128" carFollowModel="IDM" guiShape="passenger" vClass="passenger"/>
	<trip id="26" type="26" depart="28.8" from="EB_West" to="EB_East" departLane="best" departSpeed="max"/>
	<vType id="27" accel="0.790000356" decel="2.0" length="4.5" minGap="2.0" tau="0.8" maxSpeed="32.56367087" carFollowModel="IDM" guiShape="passenger" vClass="passenger"/>
	<trip id="27" type="27" depart="30.0" from="WB_East" to="WB_West" departLane="best" departSpeed="max"/>
	<vType id="28" accel="2.930797985" decel="2.119947478" length="4.5" minGap="2.817968812" tau="0.8" maxSpeed="33.99263239" carFollowModel="IDM" guiShape="passenger" vClass="passenger"/>
	<trip id="28" type="28" depart="31.3" from="NB_South" to="WB_West" departLane="best" departSpeed="max"/>
	<person id="29" type="pedestrian_type" depart="32.0" departPos="172.69191480273068" departSpeed="1.025207221374189">
		<walk from="NB_South" to="NB_North" departPosLat="1.4943312116811112"/>
	</person>
	<vType id="30" accel="0.433361298" decel="2.0" length="4.5" minGap="4.509585209" tau="2.065973892" maxSpeed="23.27567971" carFollowModel="IDM" guiShape="passenger" vClass="passenger"/>
	<trip id="30" type="30" depart="32.6" from="WB_East" to="WB_West" departLane="best" departSpeed="max"/>
	<vType id="31" accel="1.141636332" decel="3.052127647" length="4.5" minGap="2.0" tau="0.8" maxSpeed="33.0548302" carFollowModel="IDM" guiShape="passenger" vClass="passenger"/>
	<trip id="31" type="31" depart="34.2" from="SB_North" to="SB_South" departLane="best" departSpeed="max"/>
	<vType id="32" accel="1.401666403" decel="2.718149618" length="4.5" minGap="2.0" tau="0.8" maxSpeed="31.30784525" carFollowModel="IDM" guiShape="passenger" vClass="passenger"/>
	<trip id="32" type="32" depart="35.3" from="EB_West" to="SB_South" departLane="best" departSpeed="max"/>
	<vType id="33" accel="0.929250273" decel="3.370283615" length="4.5" minGap="2.0" tau="2.298785284" maxSpeed="32.29103128" carFollowModel="IDM" guiShape="passenger" vClass="passenger"/>
	<trip id="33" type="33" depart="35.4" from="EB_West" to="EB_East" departLane="best" departSpeed="max"/>
	<vType id="34" accel="0.782949981" decel="2.605659833" length="4.5" minGap="5.044717767" tau="2.00991476" maxSpeed="32.07501444" carFollowModel="IDM" guiShape="passenger" vClass="passenger"/>
	<trip id="34" type="34" depart="36.9" from="NB_South" to="NB_North" departLane="best" departSpeed="max"/>
	<vType id="35" accel="0.328108907" decel="2.138829847" length="4.5" minGap="2.0" tau="1.777291376" maxSpeed="33.61554436" carFollowModel="IDM" guiShape="passenger" vClass="passenger"/>
	<trip id="35" type="35" depart="36.9" from="EB_West" to="EB_East" departLane="best" departSpeed="max"/>
	<vType id="36" accel="0.989976111" decel="2.307407688" length="4.5" minGap="2.0" tau="1.538824128" maxSpeed="27.8504294" carFollowModel="IDM" guiShape="passenger" vClass="passenger"/>
	<trip id="36" type="36" depart="38.4" from="EB_West" to="EB_East" departLane="best" departSpeed="max"/>
	<vType id="37" accel="2.560055747" decel="3.402960294" length="4.5" minGap="5.113774719" tau="1.996257282" maxSpeed="23.44684054" carFollowModel="IDM" guiShape="passenger" vClass="passenger"/>
	<trip id="37" type="37" depart="38.4" from="SB_North" to="WB_West" departLane="best" departSpeed="max"/>
	<vType id="38" accel="0.49294451" decel="2.0" length="4.5" minGap="5.230195259" tau="2.154828616" maxSpeed="33.0906324" carFollowModel="IDM" guiShape="passenger" vClass="passenger"/>
	<trip id="38" type="38" depart="39.9" from="EB_West" to="EB_East" departLane="best" departSpeed="max"/>
	<vType id="39" accel="1.827588767" decel="2.845751038" length="4.5" minGap="2.0" tau="1.555117543" maxSpeed="30.08211702" carFollowModel="IDM" guiShape="passenger" vClass="passenger"/>
	<trip id="39" type="39" depart="41.5" from="WB_East" to="WB_West" departLane="best" departSpeed="max"/>
	<vType id="40" accel="0.328108907" decel="2.138829847" length="4.5" minGap="2.0" tau="1.777291376" maxSpeed="33.61554436" carFollowModel="IDM" guiShape="passenger" vClass="passenger"/>
	<trip id="40" type="40" depart="43.2" from="WB_East" to="WB_West" departLane="best" departSpeed="max"/>
	<vType id="41" accel="0.679493386" decel="2.0" length="4.5" minGap="3.257585284" tau="1.324961186" maxSpeed="35.11034661" carFollowModel="IDM" guiShape="passenger" vClass="passenger"/>
	<trip id="41" type="41" depart="43.9" from="WB_East" to="NB_North" departLane="best" departSpeed="max"/>
	<vType id="42" accel="1.141636332" decel="3.052127647" length="4.5" minGap="2.0" tau="0.8" maxSpeed="33.0548302" carFollowModel="IDM" guiShape="passenger" vClass="passenger"/>
	<trip id="42" type="42" depart="44.1" from="NB_South" to="NB_North" departLane="best" departSpeed="max"/>
	<vType id="43" accel="1.401666403" decel="2.718149618" length="4.5" minGap="2.0" tau="0.8" maxSpeed="31.30784525" carFollowModel="IDM" guiShape="passenger" vClass="passenger"/>
	<trip id="43" type="43" depart="44.7" from="WB_East" to="WB_West" departLane="best" departSpeed="max"/>
	<vType id="44" accel="1.401666403" decel="2.718149618" length="4.5" minGap="2.0" tau="0.8" maxSpeed="31.30784525" carFollowModel="IDM" guiShape="passenger" vClass="passenger"/>
	<trip id="44" type="44" depart="45.4" from="EB_West" to="EB_East" departLane="best" departSpeed="max"/>
	<vType id="45" accel="1.571255856" decel="2.0" length="4.5" minGap="5.165910689" tau="1.572899785" maxSpeed="24.12461603" carFollowModel="IDM" guiShape="passenger" vClass="passenger"/>
	<trip id="45" type="45" depart="46.1" from="SB_North" to="SB_South" departLane="best" departSpeed="max"/>
	<vType id="46" accel="1.878594103" decel="2.60378511" length="4.5" minGap="2.0" tau="0.8" maxSpeed="33.59776952" carFollowModel="IDM" guiShape="passenger" vClass="passenger"/>
	<trip id="46" type="46" depart="46.9" from="EB_West" to="EB_East" departLane="best" departSpeed="max"/>
	<vType id="47" accel="1.141636332" decel="3.052127647" length="4.5" minGap="2.0" tau="0.8" maxSpeed="33.0548302" carFollowModel="IDM" guiShape="passenger" vClass="passenger"/>
	<trip id="47" type="47" depart="49.1" from="WB_East" to="SB_South" departLane="best" departSpeed="max"/>
	<vType id="48" accel="1.141636332" decel="3.052127647" length="4.5" minGap="2.0" tau="0.8" maxSpeed="33.0548302" carFollowModel="IDM" guiShape="passenger" vClass="passenger"/>
	<trip id="48" type="48" depart="49.7" from="WB_East" to="WB_West" departLane="best" departSpeed="max"/>
	<vType id="49" accel="0.433361298" decel="2.0" length="4.5" minGap="4.509585209" tau="2.065973892" maxSpeed="23.27567971" carFollowModel="IDM" guiShape="passenger" vClass="passenger"/>
	<trip id="49" type="49" depart="49.7" from="NB_South" to="NB_North" departLane="best" departSpeed="max"/>
	<vType id="50" accel="2.414795058" decel="3.159540369" length="4.5" minGap="2.0" tau="0.8" maxSpeed="31.460881" carFollowModel="IDM" guiShape="passenger" vClass="passenger"/>
	<trip id="50" type="50" depart="52.4" from="EB_West" to="EB_East" departLane="best" departSpeed="max"/>
	<vType id="51" accel="2.414795058" decel="3.159540369" length="4.5" minGap="2.0" tau="0.8" maxSpeed="31.460881" carFollowModel="IDM" guiShape="passenger" vClass="passenger"/>
	<trip id="51" type="51" depart="53.7" from="WB_East" to="WB_West" departLane="best" departSpeed="max"/>
	<vType id="52" accel="2.715266259" decel="2.0" length="4.5" minGap="2.0" tau="0.8" maxSpeed="33.90713509" carFollowModel="IDM" guiShape="passenger" vClass="passenger"/>
	<trip id="52" type="52" depart="54.5" from="NB_South" to="NB_North" departLane="best" departSpeed="max"/>
	<vType id="53" accel="0.433361298" decel="2.0" length="4.5" minGap="4.509585209" tau="2.065973892" maxSpeed="23.27567971" carFollowModel="IDM" guiShape="passenger" vClass="passenger"/>
	<trip id="53" type="53" depart="55.6" from="WB_East" to="WB_West" departLane="best" departSpeed="max"/>
	<vType id="54" accel="0.978672252" decel="3.044272761" length="4.5" minGap="5.829454877" tau="0.8" maxSpeed="25.39393109" carFollowModel="IDM" guiShape="passenger" vClass="passenger"/>
	<trip id="54" type="54" depart="61.7" from="EB_West" to="EB_East" departLane="best" departSpeed="max"/>
	<vType id="55" accel="2.930797985" decel="2.119947478" length="4.5" minGap="2.817968812" tau="0.8" maxSpeed="33.99263239" carFollowModel="IDM" guiShape="passenger" vClass="passenger"/>
	<trip id="55" type="55" depart="65.0" from="NB_South" to="NB_North" departLane="best" departSpeed="max"/>
	<vType id="56" accel="0.434609794" decel="2.0" length="4.5" minGap="2.0" tau="0.8" maxSpeed="33.49730097" carFollowModel="IDM" guiShape="passenger" vClass="passenger"/>
	<trip id="56" type="56" depart="66.2" from="WB_East" to="WB_West" departLane="best" departSpeed="max"/>
	<vType id="57" accel="0.875596045" decel="2.0" length="4.5" minGap="5.220845763" tau="1.406052692" maxSpeed="33.811169" carFollowModel="IDM" guiShape="passenger" vClass="passenger"/>
	<trip id="57" type="57" depart="69.6" from="WB_East" to="WB_West" departLane="best" departSpeed="max"/>
	<vType id="58" accel="1.571255856" decel="2.0" length="4.5" minGap="5.165910689" tau="1.572899785" maxSpeed="24.12461603" carFollowModel="IDM" guiShape="passenger" vClass="passenger"/>
	<trip id="58" type="58" depart="71.0" from="NB_South" to="NB_North" departLane="best" departSpeed="max"/>
	<vType id="59" accel="2.715266259" decel="2.0" length="4.5" minGap="2.0" tau="0.8" maxSpeed="33.90713509" carFollowModel="IDM" guiShape="passenger" vClass="passenger"/>
	<trip id="59" type="59" depart="71.1" from="WB_East" to="WB_West" departLane="best" departSpeed="max"/>
	<vType id="60" accel="0.978672252" decel="3.044272761" length="4.5" minGap="5.829454877" tau="0.8" maxSpeed="25.39393109" carFollowModel="IDM" guiShape="passenger" vClass="passenger"/>
	<trip id="60" type="60" depart="73.7" from="SB_North" to="SB_South" departLane="best" departSpeed="max"/>
	<person id="61" type="pedestrian_type" depart="75.4" departPos="40.7421110526609" departSpeed="0.5282387670812381">
		<walk from="SB_South" to="SB_North" departPosLat="1.977093837380154"/>
	</person>
	<vType id="62" accel="0.434609794" decel="2.0" length="4.5" minGap="2.0" tau="0.8" maxSpeed="33.49730097" carFollowModel="IDM" guiShape="passenger" vClass="passenger"/>
	<trip id="62" type="62" depart="75.8" from="SB_North" to="SB_South" departLane="best" departSpeed="max"/>
	<person id="63" type="pedestrian_type" depart="77.1" departPos="133.07925004130826" departSpeed="1.7757573151311092">
		<walk from="EB_West" to="EB_East" departPosLat="-1.7996283263097919"/>
	</person>
	<vType id="64" accel="0.434609794" decel="2.0" length="4.5" minGap="2.0" tau="0.8" maxSpeed="33.49730097" carFollowModel="IDM" guiShape="passenger" vClass="passenger"/>
	<trip id="64" type="64" depart="77.1" from="WB_East" to="WB_West" departLane="best" departSpeed="max"/>
	<vType id="65" accel="2.930797985" decel="2.119947478" length="4.5" minGap="2.817968812" tau="0.8" maxSpeed="33.99263239" carFollowModel="IDM" guiShape="passenger" vClass="passenger"/>
	<trip id="65" type="65" depart="78.4" from="NB_South" to="NB_North" departLane="best" departSpeed="max"/>
	<vType id="66" accel="0.117469404" decel="2.554536645" length="4.5" minGap="2.084465188" tau="1.975242294" maxSpeed="33.59126233" carFollowModel="IDM" guiShape="passenger" vClass="passenger"/>
	<trip id="66" type="66" depart="78.6" from="NB_South" to="EB_East" departLane="best" departSpeed="max"/>
	<person id="67" type="pedestrian_type" depart="80.1" departPos="95.92434817387498" departSpeed="0.8357154029850065">
		<walk from="NB_South" to="NB_North" departPosLat="-1.7078889719248953"/>
	</person>
	<vType id="68" accel="0.49294451" decel="2.0" length="4.5" minGap="5.230195259" tau="2.154828616" maxSpeed="33.0906324" carFollowModel="IDM" guiShape="passenger" vClass="passenger"/>
	<trip id="68" type="68" depart="83.2" from="WB_East" to="WB_West" departLane="best" departSpeed="max"/>
	<vType id="69" accel="0.328108907" decel="2.138829847" length="4.5" minGap="2.0" tau="1.777291376" maxSpeed="33.61554436" carFollowModel="IDM" guiShape="passenger" vClass="passenger"/>
	<trip id="69" type="69" depart="84.3" from="NB_South" to="WB_West" departLane="best" departSpeed="max"/>
	<vType id="70" accel="0.117469404" decel="2.554536645" length="4.5" minGap="2.084465188" tau="1.975242294" maxSpeed="33.59126233" carFollowModel="IDM" guiShape="passenger" vClass="passenger"/>
	<trip id="70" type="70" depart="85.2" from="WB_East" to="WB_West" departLane="best" departSpeed="max"/>
	<trip id="71" type="bicycle_type" depart="87.1" from="NB_South" to="NB_North" departLane="best" departSpeed="max"/>
	<person id="72" type="pedestrian_type" depart="88.2" departPos="41.18878077102619" departSpeed="1.601843638643952">
		<walk from="SB_North" to="SB_South" departPosLat="0.3083050551315867"/>
	</person>
	<vType id="73" accel="3.432127171" decel="2.515299395" length="4.5" minGap="2.222171232" tau="0.8" maxSpeed="29.46205864" carFollowModel="IDM" guiShape="passenger" vClass="passenger"/>
	<trip id="73" type="73" depart="88.3" from="EB_West" to="EB_East" departLane="best" departSpeed="max"/>
	<vType id="74" accel="1.756220677" decel="2.057797029" length="12.0" minGap="5.002934444" tau="1.718695735" maxSpeed="26.53924371" carFollowModel="IDM" guiShape="truck" vClass="truck"/>
	<trip id="74" type="74" depart="89.0" from="SB_North" to="SB_South" departLane="best" departSpeed="max"/>
	<vType id="75" accel="0.929250273" decel="3.370283615" length="4.5" minGap="2.0" tau="2.298785284" maxSpeed="32.29103128" carFollowModel="IDM" guiShape="passenger" vClass="passenger"/>
	<trip id="75" type="75" depart="89.4" from="WB_East" to="SB_South" departLane="best" departSpeed="max"/>
	<vType id="76" accel="2.714483646" decel="3.268548368" length="4.5" minGap="3.185282213" tau="0.8" maxSpeed="33.87827552" carFollowModel="IDM" guiShape="passenger" vClass="passenger"/>
	<trip id="76" type="76" depart="89.5" from="NB_South" to="NB_North" departLane="best" departSpeed="max"/>
	<vType id="77" accel="0.433361298" decel="2.0" length="4.5" minGap="4.509585209" tau="2.065973892" maxSpeed="23.27567971" carFollowModel="IDM" guiShape="passenger" vClass="passenger"/>
	<trip id="77" type="77" depart="92.0" from="EB_West" to="EB_East" departLane="best" departSpeed="max"/>
	<vType id="78" accel="1.89702696" decel="2.0" length="4.5" minGap="4.235579248" tau="2.082816865" maxSpeed="33.09037672" carFollowModel="IDM" guiShape="passenger" vClass="passenger"/>
	<trip id="78" type="78" depart="92.1" from="WB_East" to="WB_West" departLane="best" departSpeed="max"/>
	<vType id="79" accel="2.414795058" decel="3.159540369" length="4.5" minGap="2.0" tau="0.8" maxSpeed="31.460881" carFollowModel="IDM" guiShape="passenger" vClass="passenger"/>
	<trip id="79" type="79" depart="92.5" from="NB_South" to="NB_North" departLane="best" departSpeed="max"/>
	<vType id="80" accel="2.39996338" decel="2.560725145" length="12.0" minGap="3.14399105" tau="1.885520975" maxSpeed="19.68908506" carFollowModel="IDM" guiShape="truck" vClass="truck"/>
	<trip id="80" type="80" depart="93.6" from="WB_East" to="WB_West" departLane="best" departSpeed="max"/>
	<vType id="81" accel="1.571255856" decel="2.0" length="4.5" minGap="5.165910689" tau="1.572899785" maxSpeed="24.12461603" carFollowModel="IDM" guiShape="passenger" vClass="passenger"/>
	<trip id="81" type="81" depart="94.0" from="NB_South" to="NB_North" departLane="best" departSpeed="max"/>
	<person id="82" type="pedestrian_type" depart="94.2" departPos="125.43258038671122" departSpeed="1.2414448985822777">
		<walk from="EB_West" to="EB_East" departPosLat="0.7661339991340657"/>
	</person>
	<vType id="83" accel="0.49294451" decel="2.0" length="4.5" minGap="5.230195259" tau="2.154828616" maxSpeed="33.0906324" carFollowModel="IDM" guiShape="passenger" vClass="passenger"/>
	<trip id="83" type="83" depart="95.0" from="SB_North" to="SB_South" departLane="best" departSpeed="max"/>
	<vType id="84" accel="1.550745287" decel="2.0" length="4.5" minGap="4.699742903" tau="2.380959156" maxSpeed="34.45241241" carFollowModel="IDM" guiShape="passenger" vClass="passenger"/>
	<trip id="84" type="84" depart="95.1" from="WB_East" to="WB_West" departLane="best" departSpeed="max"/>
	<vType id="85" accel="1.550745287" decel="2.0" length="4.5" minGap="4.699742903" tau="2.380959156" maxSpeed="34.45241241" carFollowModel="IDM" guiShape="passenger" vClass="passenger"/>
	<trip id="85" type="85" depart="95.9" from="EB_West" to="EB_East" departLane="best" departSpeed="max"/>
	<vType id="86" accel="2.644660258" decel="2.0" length="4.5" minGap="2.0" tau="0.8" maxSpeed="34.14799584" carFollowModel="IDM" guiShape="passenger" vClass="passenger"/>
	<trip id="86" type="86" depart="98.0" from="WB_East" to="WB_West" departLane="best" departSpeed="max"/>
	<vType id="87" accel="0.457915697" decel="2.075590708" length="12.0" minGap="4.110415318" tau="2.647188565" maxSpeed="13.25121398" carFollowModel="IDM" guiShape="truck" vClass="truck"/>
	<trip id="87" type="87" depart="98.6" from="NB_South" to="NB_North" departLane="best" departSpeed="max"/>
	<vType id="88" accel="2.714483646" decel="3.268548368" length="4.5" minGap="3.185282213" tau="0.8" maxSpeed="33.87827552" carFollowModel="IDM" guiShape="passenger" vClass="passenger"/>
	<trip id="88" type="88" depart="98.6" from="WB_East" to="NB_North" departLane="best" departSpeed="max"/>
	<vType id="89" accel="2.930797985" decel="2.119947478" length="4.5" minGap="2.817968812" tau="0.8" maxSpeed="33.99263239" carFollowModel="IDM" guiShape="passenger" vClass="passenger"/>
	<trip id="89" type="89" depart="98.7" from="SB_North" to="SB_South" departLane="best" departSpeed="max"/>
	<vType id="90" accel="3.69302158" decel="2.076100467" length="12.0" minGap="2.0" tau="1.807448025" maxSpeed="24.22455716" carFollowModel="IDM" guiShape="truck" vClass="truck"/>
	<trip id="90" type="90" depart="98.8" from="EB_West" to="NB_North" departLane="best" departSpeed="max"/>
	<vType id="91" accel="1.141636332" decel="3.052127647" length="4.5" minGap="2.0" tau="0.8" maxSpeed="33.0548302" carFollowModel="IDM" guiShape="passenger" vClass="passenger"/>
	<trip id="91" type="91" depart="100.1" from="NB_South" to="NB_North" departLane="best" departSpeed="max"/>
	<vType id="92" accel="1.550745287" decel="2.0" length="4.5" minGap="4.699742903" tau="2.380959156" maxSpeed="34.45241241" carFollowModel="IDM" guiShape="passenger" vClass="passenger"/>
	<trip id="92" type="92" depart="101.7" from="EB_West" to="EB_East" departLane="best" departSpeed="max"/>
	<person id="93" type="pedestrian_type" depart="102.2" departPos="93.42710422401711" departSpeed="0.7881040007602023">
		<walk from="NB_South" to="NB_North" departPosLat="-1.3818952867145549"/>
	</person>
	<vType id="94" accel="2.54753237" decel="2.0" length="4.5" minGap="2.001173919" tau="0.855931233" maxSpeed="29.34882475" carFollowModel="IDM" guiShape="passenger" vClass="passenger"/>
	<trip id="94" type="94" depart="103.0" from="SB_North" to="EB_East" departLane="best" departSpeed="max"/>
	<vType id="95" accel="2.615952246" decel="2.563655974" length="4.5" minGap="5.310006876" tau="1.31930417" maxSpeed="34.7611202" carFollowModel="IDM" guiShape="passenger" vClass="passenger"/>
	<trip id="95" type="95" depart="103.8" from="EB_West" to="EB_East" departLane="best" departSpeed="max"/>
	<person id="96" type="pedestrian_type" depart="105.1" departPos="118.98685525603607" departSpeed="2.086423123378665">
		<walk from="NB_North" to="NB_South" departPosLat="-1.9565166995799732"/>
	</person>
	<vType id="97" accel="2.560055747" decel="3.402960294" length="4.5" minGap="5.113774719" tau="1.996257282" maxSpeed="23.44684054" carFollowModel="IDM" guiShape="passenger" vClass="passenger"/>
	<trip id="97" type="97" depart="106.5" from="WB_East" to="NB_North" departLane="best" departSpeed="max"/>
	<person id="98" type="pedestrian_type" depart="106.7" departPos="92.26340070679026" departSpeed="0.5305953041954778">
		<walk from="WB_East" to="WB_West" departPosLat="0.7929961222663366"/>
	</person>
	<vType id="99" accel="2.930797985" decel="2.119947478" length="4.5" minGap="2.817968812" tau="0.8" maxSpeed="33.99263239" carFollowModel="IDM" guiShape="passenger" vClass="passenger"/>
	<trip id="99" type="99" depart="107.0" from="NB_South" to="NB_North" departLane="best" departSpeed="max"/>
	<vType id="100" accel="0.457915697" decel="2.075590708" length="12.0" minGap="4.110415318" tau="2.647188565" maxSpeed="13.25121398" carFollowModel="IDM" guiShape="truck" vClass="truck"/>
	<trip id="100" type="100" depart="108.1" from="SB_North" to="SB_South" departLane="best" departSpeed="max"/>
	<vType id="101" accel="0.978672252" decel="3.044272761" length="4.5" minGap="5.829454877" tau="0.8" maxSpeed="25.39393109" carFollowModel="IDM" guiShape="passenger" vClass="passenger"/>
	<trip id="101" type="101" depart="108.5" from="NB_South" to="NB_North" departLane="best" departSpeed="max"/>
	<person id="102" type="pedestrian_type" depart="108.5" departPos="91.24459943774673" departSpeed="0.5125812099301786">
		<walk from="EB_East" to="EB_West" departPosLat="-1.3190752397060934"/>
	</person>
	<vType id="103" accel="0.54876797" decel="2.0" length="4.5" minGap="2.0" tau="0.8" maxSpeed="23.31892814" carFollowModel="IDM" guiShape="passenger" vClass="passenger"/>
	<trip id="103" type="103" depart="109.6" from="SB_North" to="SB_South" departLane="best" departSpeed="max"/>
	<vType id="104" accel="0.857059045" decel="3.028708126" length="4.5" minGap="4.16188834" tau="1.417574765" maxSpeed="34.716161" carFollowModel="IDM" guiShape="passenger" vClass="passenger"/>
	<trip id="104" type="104" depart="110.0" from="EB_West" to="EB_East" departLane="best" departSpeed="max"/>
	<vType id="105" accel="0.875596045" decel="2.0" length="4.5" minGap="5.220845763" tau="1.406052692" maxSpeed="33.811169" carFollowModel="IDM" guiShape="passenger" vClass="passenger"/>
	<trip id="105" type="105" depart="111.1" from="SB_North" to="WB_West" departLane="best" departSpeed="max"/>
	<vType id="106" accel="0.875596045" decel="2.0" length="4.5" minGap="5.220845763" tau="1.406052692" maxSpeed="33.811169" carFollowModel="IDM" guiShape="passenger" vClass="passenger"/>
	<trip id="106" type="106" depart="112.9" from="WB_East" to="WB_West" departLane="best" departSpeed="max"/>
	<vType id="107" accel="0.49294451" decel="2.0" length="4.5" minGap="5.230195259" tau="2.154828616" maxSpeed="33.0906324" carFollowModel="IDM" guiShape="passenger" vClass="passenger"/>
	<trip id="107" type="107" depart="114.8" from="EB_West" to="SB_South" departLane="best" departSpeed="max"/>
	<vType id="108" accel="0.679493386" decel="2.0" length="4.5" minGap="3.257585284" tau="1.324961186" maxSpeed="35.11034661" carFollowModel="IDM" guiShape="passenger" vClass="passenger"/>
	<trip id="108" type="108" depart="114.9" from="EB_West" to="NB_North" departLane="best" departSpeed="max"/>
	<vType id="109" accel="2.560055747" decel="3.402960294" length="4.5" minGap="5.113774719" tau="1.996257282" maxSpeed="23.44684054" carFollowModel="IDM" guiShape="passenger" vClass="passenger"/>