<configuration>
    <input>
        <net-file value="freeway.net.xml" />
        <route-files value="all_trips.trips.xml" />
    </input>

    <time>
        <begin value="0" />
        <end value="1200" />
        <step-length value="0.1" />
    </time>

</configuration>