<configuration><input><net-file value="i90_94.net.xml" /><route-files value="i90_94.rou.xml" /></input><time><begin value="0" /><end value="900" /><step-length value="0.1" /></time></configuration>