<configuration><input><net-file value="C:\Users\Pedram\repo-optimized\3 - SIMULATION\models\i90_94.net.xml" /><route-files value="C:\Users\Pedram\repo-optimized\3 - SIMULATION\models\i90_94.rou.xml" /></input><time><begin value="0" /><end value="900" /><step-length value="0.1" /></time></configuration>