<?xml version='1.0' encoding='utf-8'?>
<routes><vType id="1" accel="0.875596045" decel="2.5" length="4.5" minGap="5.220845763" tau="1.406052692" maxSpeed="33.811169" carFollowModel="IDM" guiShape="passenger" vClass="passenger" /><trip id="1" type="1" depart="1.5" from="Main" to="NB" departLane="1" departSpeed="max" /><vType id="2" accel="1.401666403" decel="2.718149618" length="4.5" minGap="2.0" tau="0.9" maxSpeed="31.30784525" carFollowModel="IDM" guiShape="passenger" vClass="passenger" /><trip id="2" type="2" depart="1.5" from="Main" to="SB" departLane="5" departSpeed="max" /><vType id="3" accel="2.560055747" decel="3.402960294" length="4.5" minGap="5.113774719" tau="1.996257282" maxSpeed="23.44684054" carFollowModel="IDM" guiShape="passenger" vClass="passenger" /><trip id="3" type="3" depart="1.6" from="Main" to="SB" departLane="2" departSpeed="max" /><vType id="4" accel="2.414795058" decel="3.159540369" length="4.5" minGap="2.0" tau="0.9" maxSpeed="31.460881" carFollowModel="IDM" guiShape="passenger" vClass="passenger" /><trip id="4" type="4" depart="1.7" from="Main" to="NB" departLane="0" departSpeed="max" /><vType id="5" accel="0.929250273" decel="3.370283615" length="4.5" minGap="2.0" tau="2.298785284" maxSpeed="32.29103128" carFollowModel="IDM" guiShape="passenger" vClass="passenger" /><trip id="5" type="5" depart="3.0" from="Main" to="NB" departLane="1" departSpeed="max" /><vType id="6" accel="1.89702696" decel="2.5" length="4.5" minGap="4.235579248" tau="2.082816865" maxSpeed="33.09037672" carFollowModel="IDM" guiShape="passenger" vClass="passenger" /><trip id="6" type="6" depart="3.1" from="Main" to="SB" departLane="5" departSpeed="max" /><vType id="7" accel="0.929250273" decel="3.370283615" length="4.5" minGap="2.0" tau="2.298785284" maxSpeed="32.29103128" carFollowModel="IDM" guiShape="passenger" vClass="passenger" /><trip id="7" type="7" depart="3.1" from="Main" to="SB" departLane="4" departSpeed="max" /><vType id="8" accel="0.782949981" decel="2.605659833" length="4.5" minGap="5.044717767" tau="2.00991476" maxSpeed="32.07501444" carFollowModel="IDM" guiShape="passenger" vClass="passenger" /><trip id="8" type="8" depart="4.6" from="Main" to="SB" departLane="4" departSpeed="max" /><vType id="9" accel="2.560055747" decel="3.402960294" length="4.5" minGap="5.113774719" tau="1.996257282" maxSpeed="23.44684054" carFollowModel="IDM" guiShape="passenger" vClass="passenger" /><trip id="9" type="9" depart="6.1" from="Main" to="SB" departLane="4" departSpeed="max" /><vType id="10" accel="1.571255856" decel="2.5" length="4.5" minGap="5.165910689" tau="1.572899785" maxSpeed="24.12461603" carFollowModel="IDM" guiShape="passenger" vClass="passenger" /><trip id="10" type="10" depart="6.6" from="Main" to="NB" departLane="0" departSpeed="max" /><vType id="11" accel="3.414048174" decel="2.5" length="12.0" minGap="2.578323675" tau="0.9" maxSpeed="26.86256056" carFollowModel="IDM" guiShape="truck" vClass="truck" /><trip id="11" type="11" depart="6.9" from="Main" to="NB" departLane="1" departSpeed="max" /><vType id="12" accel="1.89702696" decel="2.5" length="4.5" minGap="4.235579248" tau="2.082816865" maxSpeed="33.09037672" carFollowModel="IDM" guiShape="passenger" vClass="passenger" /><trip id="12" type="12" depart="7.8" from="Main" to="SB" departLane="5" departSpeed="max" /><vType id="13" accel="2.644660258" decel="2.5" length="4.5" minGap="2.0" tau="0.9" maxSpeed="34.14799584" carFollowModel="IDM" guiShape="passenger" vClass="passenger" /><trip id="13" type="13" depart="8.1" from="Main" to="SB" departLane="4" departSpeed="max" /><vType id="14" accel="2.560055747" decel="3.402960294" length="4.5" minGap="5.113774719" tau="1.996257282" maxSpeed="23.44684054" carFollowModel="IDM" guiShape="passenger" vClass="passenger" /><trip id="14" type="14" depart="8.2" from="Main" to="NB" departLane="0" departSpeed="max" /><vType id="15" accel="0.875596045" decel="2.5" length="4.5" minGap="5.220845763" tau="1.406052692" maxSpeed="33.811169" carFollowModel="IDM" guiShape="passenger" vClass="passenger" /><trip id="15" type="15" depart="8.4" from="Main" to="SB" departLane="3" departSpeed="max" /><vType id="16" accel="2.644660258" decel="2.5" length="4.5" minGap="2.0" tau="0.9" maxSpeed="34.14799584" carFollowModel="IDM" guiShape="passenger" vClass="passenger" /><trip id="16" type="16" depart="8.4" from="Main" to="NB" departLane="1" departSpeed="max" /><vType id="17" accel="3.69302158" decel="2.5" length="12.0" minGap="2.0" tau="1.807448025" maxSpeed="24.22455716" carFollowModel="IDM" guiShape="truck" vClass="truck" /><trip id="17" type="17" depart="8.7" from="Main" to="NB" departLane="2" departSpeed="max" /><vType id="18" accel="1.89702696" decel="2.5" length="4.5" minGap="4.235579248" tau="2.082816865" maxSpeed="33.09037672" carFollowModel="IDM" guiShape="passenger" vClass="passenger" /><trip id="18" type="18" depart="9.3" from="Main" to="SB" departLane="5" departSpeed="max" /><vType id="19" accel="1.571255856" decel="2.5" length="4.5" minGap="5.165910689" tau="1.572899785" maxSpeed="24.12461603" carFollowModel="IDM" guiShape="passenger" vClass="passenger" /><trip id="19" type="19" depart="9.7" from="Main" to="SB" departLane="4" departSpeed="max" /><vType id="20" accel="2.560055747" decel="3.402960294" length="4.5" minGap="5.113774719" tau="1.996257282" maxSpeed="23.44684054" carFollowModel="IDM" guiShape="passenger" vClass="passenger" /><trip id="20" type="20" depart="9.9" from="Main" to="NB" departLane="1" departSpeed="max" /><vType id="21" accel="0.328108907" decel="2.5" length="4.5" minGap="2.0" tau="1.777291376" maxSpeed="33.61554436" carFollowModel="IDM" guiShape="passenger" vClass="passenger" /><trip id="21" type="21" depart="11.4" from="Main" to="NB" departLane="1" departSpeed="max" /><vType id="22" accel="2.715266259" decel="2.5" length="4.5" minGap="2.0" tau="0.9" maxSpeed="33.90713509" carFollowModel="IDM" guiShape="passenger" vClass="passenger" /><trip id="22" type="22" depart="11.6" from="Main" to="SB" departLane="5" departSpeed="max" /><vType id="23" accel="0.978672252" decel="3.044272761" length="4.5" minGap="5.829454877" tau="0.9" maxSpeed="25.39393109" carFollowModel="IDM" guiShape="passenger" vClass="passenger" /><trip id="23" type="23" depart="12.9" from="Main" to="NB" departLane="1" departSpeed="max" /><vType id="24" accel="2.714483646" decel="3.268548368" length="4.5" minGap="3.185282213" tau="0.9" maxSpeed="33.87827552" carFollowModel="IDM" guiShape="passenger" vClass="passenger" /><trip id="24" type="24" depart="13.1" from="Main" to="NB" departLane="0" departSpeed="max" /><vType id="25" accel="0.978672252" decel="3.044272761" length="4.5" minGap="5.829454877" tau="0.9" maxSpeed="25.39393109" carFollowModel="IDM" guiShape="passenger" vClass="passenger" /><trip id="25" type="25" depart="13.1" from="Main" to="SB" departLane="5" departSpeed="max" /><vType id="26" accel="0.875596045" decel="2.5" length="4.5" minGap="5.220845763" tau="1.406052692" maxSpeed="33.811169" carFollowModel="IDM" guiShape="passenger" vClass="passenger" /><trip id="26" type="26" depart="14.4" from="Main" to="NB" departLane="1" departSpeed="max" /><vType id="27" accel="0.782949981" decel="2.605659833" length="4.5" minGap="5.044717767" tau="2.00991476" maxSpeed="32.07501444" carFollowModel="IDM" guiShape="passenger" vClass="passenger" /><trip id="27" type="27" depart="14.6" from="Main" to="NB" departLane="0" departSpeed="max" /><vType id="28" accel="2.966492581" decel="2.5" length="12.0" minGap="2.943914804" tau="1.843355777" maxSpeed="19.6817311" carFollowModel="IDM" guiShape="truck" vClass="truck" /><trip id="28" type="28" depart="14.6" from="Main" to="SB" departLane="5" departSpeed="max" /><vType id="29" accel="2.414795058" decel="3.159540369" length="4.5" minGap="2.0" tau="0.9" maxSpeed="31.460881" carFollowModel="IDM" guiShape="passenger" vClass="passenger" /><trip id="29" type="29" depart="15.9" from="Main" to="NB" departLane="1" departSpeed="max" /><vType id="30" accel="1.571255856" decel="2.5" length="4.5" minGap="5.165910689" tau="1.572899785" maxSpeed="24.12461603" carFollowModel="IDM" guiShape="passenger" vClass="passenger" /><trip id="30" type="30" depart="16.6" from="Main" to="SB" departLane="3" departSpeed="max" /><vType id="31" accel="0.328108907" decel="2.5" length="4.5" minGap="2.0" tau="1.777291376" maxSpeed="33.61554436" carFollowModel="IDM" guiShape="passenger" vClass="passenger" /><trip id="31" type="31" depart="16.7" from="Main" to="SB" departLane="4" departSpeed="max" /><vType id="32" accel="2.414795058" decel="3.159540369" length="4.5" minGap="2.0" tau="0.9" maxSpeed="31.460881" carFollowModel="IDM" guiShape="passenger" vClass="passenger" /><trip id="32" type="32" depart="17.3" from="Main" to="SB" departLane="5" departSpeed="max" /><vType id="33" accel="0.117469404" decel="2.554536645" length="4.5" minGap="2.084465188" tau="1.975242294" maxSpeed="33.59126233" carFollowModel="IDM" guiShape="passenger" vClass="passenger" /><trip id="33" type="33" depart="18.2" from="Main" to="SB" departLane="4" departSpeed="max" /><vType id="34" accel="0.782949981" decel="2.605659833" length="4.5" minGap="5.044717767" tau="2.00991476" maxSpeed="32.07501444" carFollowModel="IDM" guiShape="passenger" vClass="passenger" /><trip id="34" type="34" depart="19.0" from="Main" to="NB" departLane="0" departSpeed="max" /><vType id="35" accel="2.930797985" decel="2.5" length="4.5" minGap="2.817968812" tau="0.9" maxSpeed="33.99263239" carFollowModel="IDM" guiShape="passenger" vClass="passenger" /><trip id="35" type="35" depart="20.0" from="Main" to="NB" departLane="2" departSpeed="max" /><vType id="36" accel="0.49294451" decel="2.5" length="4.5" minGap="5.230195259" tau="2.154828616" maxSpeed="33.0906324" carFollowModel="IDM" guiShape="passenger" vClass="passenger" /><trip id="36" type="36" depart="20.3" from="Main" to="NB" departLane="1" departSpeed="max" /><vType id="37" accel="2.930797985" decel="2.5" length="4.5" minGap="2.817968812" tau="0.9" maxSpeed="33.99263239" carFollowModel="IDM" guiShape="passenger" vClass="passenger" /><trip id="37" type="37" depart="21.0" from="Main" to="SB" departLane="3" departSpeed="max" /><vType id="38" accel="2.930797985" decel="2.5" length="4.5" minGap="2.817968812" tau="0.9" maxSpeed="33.99263239" carFollowModel="IDM" guiShape="passenger" vClass="passenger" /><trip id="38" type="38" depart="21.1" from="Main" to="SB" departLane="4" departSpeed="max" /><vType id="39" accel="0.328108907" decel="2.5" length="4.5" minGap="2.0" tau="1.777291376" maxSpeed="33.61554436" carFollowModel="IDM" guiShape="passenger" vClass="passenger" /><trip id="39" type="39" depart="21.8" from="Main" to="NB" departLane="1" departSpeed="max" /><vType id="40" accel="2.715266259" decel="2.5" length="4.5" minGap="2.0" tau="0.9" maxSpeed="33.90713509" carFollowModel="IDM" guiShape="passenger" vClass="passenger" /><trip id="40" type="40" depart="22.1" from="Main" to="NB" departLane="3" departSpeed="max" /><vType id="41" accel="1.89702696" decel="2.5" length="4.5" minGap="4.235579248" tau="2.082816865" maxSpeed="33.09037672" carFollowModel="IDM" guiShape="passenger" vClass="passenger" /><trip id="41" type="41" depart="22.6" from="Main" to="SB" departLane="4" departSpeed="max" /><vType id="42" accel="1.141636332" decel="3.052127647" length="4.5" minGap="2.0" tau="0.9" maxSpeed="33.0548302" carFollowModel="IDM" guiShape="passenger" vClass="passenger" /><trip id="42" type="42" depart="22.8" from="Main" to="NB" departLane="0" departSpeed="max" /><vType id="43" accel="0.782949981" decel="2.605659833" length="4.5" minGap="5.044717767" tau="2.00991476" maxSpeed="32.07501444" carFollowModel="IDM" guiShape="passenger" vClass="passenger" /><trip id="43" type="43" depart="26.2" from="Main" to="SB" departLane="5" departSpeed="max" /><vType id="44" accel="2.560055747" decel="3.402960294" length="4.5" minGap="5.113774719" tau="1.996257282" maxSpeed="23.44684054" carFollowModel="IDM" guiShape="passenger" vClass="passenger" /><trip id="44" type="44" depart="26.4" from="Main" to="SB" departLane="4" departSpeed="max" /><vType id="45" accel="0.433361298" decel="2.5" length="4.5" minGap="4.509585209" tau="2.065973892" maxSpeed="23.27567971" carFollowModel="IDM" guiShape="passenger" vClass="passenger" /><trip id="45" type="45" depart="26.8" from="Main" to="NB" departLane="1" departSpeed="max" /><vType id="46" accel="2.715266259" decel="2.5" length="4.5" minGap="2.0" tau="0.9" maxSpeed="33.90713509" carFollowModel="IDM" guiShape="passenger" vClass="passenger" /><trip id="46" type="46" depart="27.5" from="Main" to="NB" departLane="0" departSpeed="max" /><vType id="47" accel="0.875596045" decel="2.5" length="4.5" minGap="5.220845763" tau="1.406052692" maxSpeed="33.811169" carFollowModel="IDM" guiShape="passenger" vClass="passenger" /><trip id="47" type="47" depart="27.9" from="Main" to="SB" departLane="4" departSpeed="max" /><vType id="48" accel="0.117469404" decel="2.554536645" length="4.5" minGap="2.084465188" tau="1.975242294" maxSpeed="33.59126233" carFollowModel="IDM" guiShape="passenger" vClass="passenger" /><trip id="48" type="48" depart="28.1" from="Main" to="NB" departLane="2" departSpeed="max" /><vType id="49" accel="1.571255856" decel="2.5" length="4.5" minGap="5.165910689" tau="1.572899785" maxSpeed="24.12461603" carFollowModel="IDM" guiShape="passenger" vClass="passenger" /><trip id="49" type="49" depart="28.3" from="Main" to="NB" departLane="1" departSpeed="max" /><vType id="50" accel="0.54876797" decel="2.5" length="4.5" minGap="2.0" tau="0.9" maxSpeed="23.31892814" carFollowModel="IDM" guiShape="passenger" vClass="passenger" /><trip id="50" type="50" depart="28.5" from="Main" to="SB" departLane="3" departSpeed="max" /><vType id="51" accel="1.89702696" decel="2.5" length="4.5" minGap="4.235579248" tau="2.082816865" maxSpeed="33.09037672" carFollowModel="IDM" guiShape="passenger" vClass="passenger" /><trip id="51" type="51" depart="30.1" from="Main" to="NB" departLane="0" departSpeed="max" /><vType id="52" accel="0.54876797" decel="2.5" length="4.5" minGap="2.0" tau="0.9" maxSpeed="23.31892814" carFollowModel="IDM" guiShape="passenger" vClass="passenger" /><trip id="52" type="52" depart="30.3" from="Main" to="NB" departLane="1" departSpeed="max" /><vType id="53" accel="1.141636332" decel="3.052127647" length="4.5" minGap="2.0" tau="0.9" maxSpeed="33.0548302" carFollowModel="IDM" guiShape="passenger" vClass="passenger" /><trip id="53" type="53" depart="31.1" from="Main" to="SB" departLane="5" departSpeed="max" /><vType id="54" accel="0.929250273" decel="3.370283615" length="4.5" minGap="2.0" tau="2.298785284" maxSpeed="32.29103128" carFollowModel="IDM" guiShape="passenger" vClass="passenger" /><trip id="54" type="54" depart="31.6" from="Main" to="NB" departLane="0" departSpeed="max" /><vType id="55" accel="2.414795058" decel="3.159540369" length="4.5" minGap="2.0" tau="0.9" maxSpeed="31.460881" carFollowModel="IDM" guiShape="passenger" vClass="passenger" /><trip id="55" type="55" depart="32.3" from="Main" to="NB" departLane="1" departSpeed="max" /><vType id="56" accel="2.644660258" decel="2.5" length="4.5" minGap="2.0" tau="0.9" maxSpeed="34.14799584" carFollowModel="IDM" guiShape="passenger" vClass="passenger" /><trip id="56" type="56" depart="32.4" from="Main" to="SB" departLane="3" departSpeed="max" /><vType id="57" accel="0.433361298" decel="2.5" length="4.5" minGap="4.509585209" tau="2.065973892" maxSpeed="23.27567971" carFollowModel="IDM" guiShape="passenger" vClass="passenger" /><trip id="57" type="57" depart="33.8" from="Main" to="SB" departLane="4" departSpeed="max" /><vType id="58" accel="0.978672252" decel="3.044272761" length="4.5" minGap="5.829454877" tau="0.9" maxSpeed="25.39393109" carFollowModel="IDM" guiShape="passenger" vClass="passenger" /><trip id="58" type="58" depart="34.0" from="Main" to="NB" departLane="0" departSpeed="max" /><vType id="59" accel="1.550745287" decel="2.5" length="4.5" minGap="4.699742903" tau="2.380959156" maxSpeed="34.45241241" carFollowModel="IDM" guiShape="passenger" vClass="passenger" /><trip id="59" type="59" depart="34.1" from="Main" to="SB" departLane="3" departSpeed="max" /><vType id="60" accel="2.930797985" decel="2.5" length="4.5" minGap="2.817968812" tau="0.9" maxSpeed="33.99263239" carFollowModel="IDM" guiShape="passenger" vClass="passenger" /><trip id="60" type="60" depart="35.6" from="Main" to="NB" departLane="0" departSpeed="max" /><vType id="61" accel="0.433361298" decel="2.5" length="4.5" minGap="4.509585209" tau="2.065973892" maxSpeed="23.27567971" carFollowModel="IDM" guiShape="passenger" vClass="passenger" /><trip id="61" type="61" depart="35.7" from="Main" to="SB" departLane="4" departSpeed="max" /><vType id="62" accel="0.978672252" decel="3.044272761" length="4.5" minGap="5.829454877" tau="0.9" maxSpeed="25.39393109" carFollowModel="IDM" guiShape="passenger" vClass="passenger" /><trip id="62" type="62" depart="36.2" from="Main" to="NB" departLane="2" departSpeed="max" /><vType id="63" accel="2.715266259" decel="2.5" length="4.5" minGap="2.0" tau="0.9" maxSpeed="33.90713509" carFollowModel="IDM" guiShape="passenger" vClass="passenger" /><trip id="63" type="63" depart="36.5" from="Main" to="NB" departLane="1" departSpeed="max" /><vType id="64" accel="1.550745287" decel="2.5" length="4.5" minGap="4.699742903" tau="2.380959156" maxSpeed="34.45241241" carFollowModel="IDM" guiShape="passenger" vClass="passenger" /><trip id="64" type="64" depart="38.0" from="Main" to="NB" departLane="1" departSpeed="max" /><vType id="65" accel="2.715266259" decel="2.5" length="4.5" minGap="2.0" tau="0.9" maxSpeed="33.90713509" carFollowModel="IDM" guiShape="passenger" vClass="passenger" /><trip id="65" type="65" depart="38.2" from="Main" to="SB" departLane="3" departSpeed="max" /><vType id="66" accel="0.929250273" decel="3.370283615" length="4.5" minGap="2.0" tau="2.298785284" maxSpeed="32.29103128" carFollowModel="IDM" guiShape="passenger" vClass="passenger" /><trip id="66" type="66" depart="39.3" from="Main" to="NB" departLane="2" departSpeed="max" /><vType id="67" accel="0.54876797" decel="2.5" length="4.5" minGap="2.0" tau="0.9" maxSpeed="23.31892814" carFollowModel="IDM" guiShape="passenger" vClass="passenger" /><trip id="67" type="67" depart="39.7" from="Main" to="NB" departLane="0" departSpeed="max" /><vType id="68" accel="0.328108907" decel="2.5" length="4.5" minGap="2.0" tau="1.777291376" maxSpeed="33.61554436" carFollowModel="IDM" guiShape="passenger" vClass="passenger" /><trip id="68" type="68" depart="39.7" from="Main" to="SB" departLane="4" departSpeed="max" /><vType id="69" accel="2.930797985" decel="2.5" length="4.5" minGap="2.817968812" tau="0.9" maxSpeed="33.99263239" carFollowModel="IDM" guiShape="passenger" vClass="passenger" /><trip id="69" type="69" depart="40.6" from="Main" to="SB" departLane="3" departSpeed="max" /><vType id="70" accel="0.929250273" decel="3.370283615" length="4.5" minGap="2.0" tau="2.298785284" maxSpeed="32.29103128" carFollowModel="IDM" guiShape="passenger" vClass="passenger" /><trip id="70" type="70" depart="41.4" from="Main" to="NB" departLane="1" departSpeed="max" /><vType id="71" accel="0.328108907" decel="2.5" length="4.5" minGap="2.0" tau="1.777291376" maxSpeed="33.61554436" carFollowModel="IDM" guiShape="passenger" vClass="passenger" /><trip id="71" type="71" depart="41.5" from="Main" to="SB" departLane="5" departSpeed="max" /><vType id="72" accel="0.54876797" decel="2.5" length="4.5" minGap="2.0" tau="0.9" maxSpeed="23.31892814" carFollowModel="IDM" guiShape="passenger" vClass="passenger" /><trip id="72" type="72" depart="41.6" from="Main" to="SB" departLane="4" departSpeed="max" /><vType id="73" accel="0.875596045" decel="2.5" length="4.5" minGap="5.220845763" tau="1.406052692" maxSpeed="33.811169" carFollowModel="IDM" guiShape="passenger" vClass="passenger" /><trip id="73" type="73" depart="42.5" from="Main" to="SB" departLane="3" departSpeed="max" /><vType id="74" accel="1.401666403" decel="2.718149618" length="4.5" minGap="2.0" tau="0.9" maxSpeed="31.30784525" carFollowModel="IDM" guiShape="passenger" vClass="passenger" /><trip id="74" type="74" depart="42.9" from="Main" to="NB" departLane="1" departSpeed="max" /><vType id="75" accel="2.715266259" decel="2.5" length="4.5" minGap="2.0" tau="0.9" maxSpeed="33.90713509" carFollowModel="IDM" guiShape="passenger" vClass="passenger" /><trip id="75" type="75" depart="43.0" from="Main" to="SB" departLane="5" departSpeed="max" /><vType id="76" accel="1.89702696" decel="2.5" length="4.5" minGap="4.235579248" tau="2.082816865" maxSpeed="33.09037672" carFollowModel="IDM" guiShape="passenger" vClass="passenger" /><trip id="76" type="76" depart="43.1" from="Main" to="SB" departLane="4" departSpeed="max" /><vType id="77" accel="0.328108907" decel="2.5" length="4.5" minGap="2.0" tau="1.777291376" maxSpeed="33.61554436" carFollowModel="IDM" guiShape="passenger" vClass="passenger" /><trip id="77" type="77" depart="44.4" from="Main" to="SB" departLane="3" departSpeed="max" /><vType id="78" accel="1.571255856" decel="2.5" length="4.5" minGap="5.165910689" tau="1.572899785" maxSpeed="24.12461603" carFollowModel="IDM" guiShape="passenger" vClass="passenger" /><trip id="78" type="78" depart="44.6" from="Main" to="SB" departLane="4" departSpeed="max" /><vType id="79" accel="0.328108907" decel="2.5" length="4.5" minGap="2.0" tau="1.777291376" maxSpeed="33.61554436" carFollowModel="IDM" guiShape="passenger" vClass="passenger" /><trip id="79" type="79" depart="44.9" from="Main" to="NB" departLane="0" departSpeed="max" /><vType id="80" accel="1.571255856" decel="2.5" length="4.5" minGap="5.165910689" tau="1.572899785" maxSpeed="24.12461603" carFollowModel="IDM" guiShape="passenger" vClass="passenger" /><trip id="80" type="80" depart="46.1" from="Main" to="SB" departLane="4" departSpeed="max" /><vType id="81" accel="0.433361298" decel="2.5" length="4.5" minGap="4.509585209" tau="2.065973892" maxSpeed="23.27567971" carFollowModel="IDM" guiShape="passenger" vClass="passenger" /><trip id="81" type="81" depart="46.1" from="Main" to="SB" departLane="3" departSpeed="max" /><vType id="82" accel="2.560055747" decel="3.402960294" length="4.5" minGap="5.113774719" tau="1.996257282" maxSpeed="23.44684054" carFollowModel="IDM" guiShape="passenger" vClass="passenger" /><trip id="82" type="82" depart="46.3" from="Main" to="SB" departLane="5" departSpeed="max" /><vType id="83" accel="1.89702696" decel="2.5" length="4.5" minGap="4.235579248" tau="2.082816865" maxSpeed="33.09037672" carFollowModel="IDM" guiShape="passenger" vClass="passenger" /><trip id="83" type="83" depart="46.4" from="Main" to="NB" departLane="0" departSpeed="max" /><vType id="84" accel="0.54876797" decel="2.5" length="4.5" minGap="2.0" tau="0.9" maxSpeed="23.31892814" carFollowModel="IDM" guiShape="passenger" vClass="passenger" /><trip id="84" type="84" depart="47.3" from="Main" to="NB" departLane="1" departSpeed="max" /><vType id="85" accel="2.715266259" decel="2.5" length="4.5" minGap="2.0" tau="0.9" maxSpeed="33.90713509" carFollowModel="IDM" guiShape="passenger" vClass="passenger" /><trip id="85" type="85" depart="47.8" from="Main" to="SB" departLane="5" departSpeed="max" /><vType id="86" accel="3.432127171" decel="2.515299395" length="4.5" minGap="2.222171232" tau="0.9" maxSpeed="29.46205864" carFollowModel="IDM" guiShape="passenger" vClass="passenger" /><trip id="86" type="86" depart="47.9" from="Main" to="NB" departLane="0" departSpeed="max" /><vType id="87" accel="2.714483646" decel="3.268548368" length="4.5" minGap="3.185282213" tau="0.9" maxSpeed="33.87827552" carFollowModel="IDM" guiShape="passenger" vClass="passenger" /><trip id="87" type="87" depart="48.3" from="Main" to="SB" departLane="4" departSpeed="max" /><vType id="88" accel="0.782949981" decel="2.605659833" length="4.5" minGap="5.044717767" tau="2.00991476" maxSpeed="32.07501444" carFollowModel="IDM" guiShape="passenger" vClass="passenger" /><trip id="88" type="88" depart="49.3" from="Main" to="SB" departLane="5" departSpeed="max" /><vType id="89" accel="0.875596045" decel="2.5" length="4.5" minGap="5.220845763" tau="1.406052692" maxSpeed="33.811169" carFollowModel="IDM" guiShape="passenger" vClass="passenger" /><trip id="89" type="89" depart="50.9" from="Main" to="NB" departLane="0" departSpeed="max" /><vType id="90" accel="0.117469404" decel="2.554536645" length="4.5" minGap="2.084465188" tau="1.975242294" maxSpeed="33.59126233" carFollowModel="IDM" guiShape="passenger" vClass="passenger" /><trip id="90" type="90" depart="51.2" from="Main" to="SB" departLane="5" departSpeed="max" /><vType id="91" accel="3.432127171" decel="2.515299395" length="4.5" minGap="2.222171232" tau="0.9" maxSpeed="29.46205864" carFollowModel="IDM" guiShape="passenger" vClass="passenger" /><trip id="91" type="91" depart="51.3" from="Main" to="NB" departLane="1" departSpeed="max" /><vType id="92" accel="0.929250273" decel="3.370283615" length="4.5" minGap="2.0" tau="2.298785284" maxSpeed="32.29103128" carFollowModel="IDM" guiShape="passenger" vClass="passenger" /><trip id="92" type="92" depart="51.8" from="Main" to="SB" departLane="4" departSpeed="max" /><vType id="93" accel="0.49294451" decel="2.5" length="4.5" minGap="5.230195259" tau="2.154828616" maxSpeed="33.0906324" carFollowModel="IDM" guiShape="passenger" vClass="passenger" /><trip id="93" type="93" depart="52.4" from="Main" to="NB" departLane="0" departSpeed="max" /><vType id="94" accel="0.434609794" decel="2.5" length="4.5" minGap="2.0" tau="0.9" maxSpeed="33.49730097" carFollowModel="IDM" guiShape="passenger" vClass="passenger" /><trip id="94" type="94" depart="52.6" from="Main" to="NB" departLane="2" departSpeed="max" /><vType id="95" accel="1.401666403" decel="2.718149618" length="4.5" minGap="2.0" tau="0.9" maxSpeed="31.30784525" carFollowModel="IDM" guiShape="passenger" vClass="passenger" /><trip id="95" type="95" depart="52.8" from="Main" to="NB" departLane="1" departSpeed="max" /><vType id="96" accel="0.434609794" decel="2.5" length="4.5" minGap="2.0" tau="0.9" maxSpeed="33.49730097" carFollowModel="IDM" guiShape="passenger" vClass="passenger" /><trip id="96" type="96" depart="53.3" from="Main" to="SB" departLane="4" departSpeed="max" /><vType id="97" accel="1.89702696" decel="2.5" length="4.5" minGap="4.235579248" tau="2.082816865" maxSpeed="33.09037672" carFollowModel="IDM" guiShape="passenger" vClass="passenger" /><trip id="97" type="97" depart="53.9" from="Main" to="NB" departLane="0" departSpeed="max" /><vType id="98" accel="2.414795058" decel="3.159540369" length="4.5" minGap="2.0" tau="0.9" maxSpeed="31.460881" carFollowModel="IDM" guiShape="passenger" vClass="passenger" /><trip id="98" type="98" depart="54.8" from="Main" to="SB" departLane="4" departSpeed="max" /><vType id="99" accel="1.401666403" decel="2.718149618" length="4.5" minGap="2.0" tau="0.9" maxSpeed="31.30784525" carFollowModel="IDM" guiShape="passenger" vClass="passenger" /><trip id="99" type="99" depart="56.1" from="Main" to="NB" departLane="2" departSpeed="max" /><vType id="100" accel="2.560055747" decel="3.402960294" length="4.5" minGap="5.113774719" tau="1.996257282" maxSpeed="23.44684054" carFollowModel="IDM" guiShape="passenger" vClass="passenger" /><trip id="100" type="100" depart="56.3" from="Main" to="SB" departLane="4" departSpeed="max" /><vType id="101" accel="0.875596045" decel="2.5" length="4.5" minGap="5.220845763" tau="1.406052692" maxSpeed="33.811169" carFollowModel="IDM" guiShape="passenger" vClass="passenger" /><trip id="101" type="101" depart="56.5" from="Main" to="NB" departLane="0" departSpeed="max" /><vType id="102" accel="0.434609794" decel="2.5" length="4.5" minGap="2.0" tau="0.9" maxSpeed="33.49730097" carFollowModel="IDM" guiShape="passenger" vClass="passenger" /><trip id="102" type="102" depart="56.5" from="Main" to="SB" departLane="3" departSpeed="max" /><vType id="103" accel="0.54876797" decel="2.5" length="4.5" minGap="2.0" tau="0.9" maxSpeed="23.31892814" carFollowModel="IDM" guiShape="passenger" vClass="passenger" /><trip id="103" type="103" depart="56.9" from="Main" to="SB" departLane="2" departSpeed="max" /><vType id="104" accel="2.714483646" decel="3.268548368" length="4.5" minGap="3.185282213" tau="0.9" maxSpeed="33.87827552" carFollowModel="IDM" guiShape="passenger" vClass="passenger" /><trip id="104" type="104" depart="57.8" from="Main" to="SB" departLane="4" departSpeed="max" /><vType id="105" accel="0.54876797" decel="2.5" length="4.5" minGap="2.0" tau="0.9" maxSpeed="23.31892814" carFollowModel="IDM" guiShape="passenger" vClass="passenger" /><trip id="105" type="105" depart="58.1" from="Main" to="SB" departLane="3" departSpeed="max" /><vType id="106" accel="0.49294451" decel="2.5" length="4.5" minGap="5.230195259" tau="2.154828616" maxSpeed="33.0906324" carFollowModel="IDM" guiShape="passenger" vClass="passenger" /><trip id="106" type="106" depart="59.0" from="Main" to="NB" departLane="1" departSpeed="max" /><vType id="107" accel="2.414795058" decel="3.159540369" length="4.5" minGap="2.0" tau="0.9" maxSpeed="31.460881" carFollowModel="IDM" guiShape="passenger" vClass="passenger" /><trip id="107" type="107" depart="59.8" from="Main" to="SB" departLane="3" departSpeed="max" /><vType id="108" accel="0.328108907" decel="2.5" length="4.5" minGap="2.0" tau="1.777291376" maxSpeed="33.61554436" carFollowModel="IDM" guiShape="passenger" vClass="passenger" /><trip id="108" type="108" depart="61.8" from="Main" to="SB" departLane="5" departSpeed="max" /><vType id="109" accel="3.438151531" decel="3.074227859" length="12.0" minGap="4.258524863" tau="3.163006271" maxSpeed="27.1042168" carFollowModel="IDM" guiShape="truck" vClass="truck" /><trip id="109" type="109" depart="61.9" from="Main" to="NB" departLane="0" departSpeed="max" /><vType id="110" accel="0.54876797" decel="2.5" length="4.5" minGap="2.0" tau="0.9" maxSpeed="23.31892814" carFollowModel="IDM" guiShape="passenger" vClass="passe