<?xml version="1.0" ?>
<trips>
  <trip id="1" depart="0.5" from="6063187-AddedOffRampEdge" to="121980283.9" departLane="random" departSpeed="21.413310323486407"/>
  <trip id="2" depart="1.9" from="6063187-AddedOffRampEdge" to="121980283.9" departLane="random" departSpeed="34.490190473929154"/>
  <trip id="3" depart="2.2" from="6063187-AddedOffRampEdge" to="121980283.9" departLane="random" departSpeed="34.45241240872041"/>
  <trip id="4" depart="2.5" from="6063187-AddedOffRampEdge" to="121980283.9" departLane="random" departSpeed="23.275679709212543"/>
  <trip id="5" depart="2.7" from="6063187-AddedOffRampEdge" to="121980283.9" departLane="random" departSpeed="23.275679709212543"/>
  <trip id="6" depart="3.2" from="297204299" to="121980283.9" departLane="random" departSpeed="34.6169800758097"/>
  <trip id="7" depart="3.7" from="6063187-AddedOffRampEdge" to="121980283.9" departLane="random" departSpeed="13.499428108345542"/>
  <trip id="8" depart="5.8" from="297204299" to="121980283.9" departLane="random" departSpeed="33.497300967754605"/>
  <trip id="9" depart="5.8" from="6063187-AddedOffRampEdge" to="121980283.9" departLane="random" departSpeed="28.3355388"/>
  <trip id="10" depart="6.0" from="6063187-AddedOffRampEdge" to="121980283.9" departLane="random" departSpeed="33.907135088580524"/>
  <trip id="11" depart="8.3" from="6063187-AddedOffRampEdge" to="397355152" departLane="random" departSpeed="31.33285699"/>
  <trip id="12" depart="8.4" from="6063187-AddedOffRampEdge" to="121980283.9" departLane="random" departSpeed="18.81896409"/>
  <trip id="13" depart="8.6" from="6063187-AddedOffRampEdge" to="121980283.9" departLane="random" departSpeed="34.86475836065382"/>
  <trip id="14" depart="8.7" from="6063187-AddedOffRampEdge" to="121980283.9" departLane="random" departSpeed="33.81116899861578"/>
  <trip id="15" depart="8.8" from="6063187-AddedOffRampEdge" to="121980283.9" departLane="random" departSpeed="27.04474311145533"/>
  <trip id="16" depart="10.1" from="6063187-AddedOffRampEdge" to="397355152" departLane="random" departSpeed="35.07082512913231"/>
  <trip id="17" depart="10.1" from="297204299" to="121980283.9" departLane="random" departSpeed="33.497300967754605"/>
  <trip id="18" depart="10.3" from="6063187-AddedOffRampEdge" to="121980283.9" departLane="random" departSpeed="28.3355388"/>
  <trip id="19" depart="10.8" from="6063187-AddedOffRampEdge" to="121980283.9" departLane="random" departSpeed="29.64379655527186"/>
  <trip id="20" depart="10.9" from="6063187-AddedOffRampEdge" to="121980283.9" departLane="random" departSpeed="13.499428108345542"/>
  <trip id="21" depart="11.6" from="6063187-AddedOffRampEdge" to="121980283.9" departLane="random" departSpeed="26.689085055536"/>
  <trip id="22" depart="12.0" from="6063187-AddedOffRampEdge" to="121980283.9" departLane="random" departSpeed="34.304736918461074"/>
  <trip id="23" depart="13.4" from="297204299" to="121980283.9" departLane="random" departSpeed="34.11596117"/>
  <trip id="24" depart="14.1" from="6063187-AddedOffRampEdge" to="121980283.9" departLane="random" departSpeed="29.46205863667712"/>
  <trip id="25" depart="14.7" from="6063187-AddedOffRampEdge" to="121980283.9" departLane="random" departSpeed="34.76814621"/>
  <trip id="26" depart="15.5" from="6063187-AddedOffRampEdge" to="121980283.9" departLane="random" departSpeed="33.88825374753824"/>
  <trip id="27" depart="15.6" from="6063187-AddedOffRampEdge" to="121980283.9" departLane="random" departSpeed="34.78547759343283"/>
  <trip id="28" depart="15.9" from="6063187-AddedOffRampEdge" to="121980283.9" departLane="random" departSpeed="30.23978610533909"/>
  <trip id="29" depart="17.1" from="297204299" to="121980283.9" departLane="random" departSpeed="27.04474311145533"/>
  <trip id="30" depart="17.1" from="6063187-AddedOffRampEdge" to="397355152" departLane="random" departSpeed="34.14799584270608"/>
  <trip id="31" depart="18.2" from="6063187-AddedOffRampEdge" to="121980283.9" departLane="random" departSpeed="34.11596117"/>
  <trip id="32" depart="18.3" from="6063187-AddedOffRampEdge" to="121980283.9" departLane="random" departSpeed="33.8707054881056"/>
  <trip id="33" depart="18.4" from="6063187-AddedOffRampEdge" to="121980283.9" departLane="random" departSpeed="34.7611202"/>
  <trip id="34" depart="18.8" from="6063187-AddedOffRampEdge" to="121980283.9" departLane="random" departSpeed="24.124616030582253"/>
  <trip id="35" depart="19.1" from="6063187-AddedOffRampEdge" to="121980283.9" departLane="random" departSpeed="26.6817310996075"/>
  <trip id="36" depart="19.2" from="6063187-AddedOffRampEdge" to="121980283.9" departLane="random" departSpeed="31.85295808200001"/>
  <trip id="37" depart="19.3" from="6063187-AddedOffRampEdge" to="121980283.9" departLane="random" departSpeed="18.75138274938237"/>
  <trip id="38" depart="19.4" from="6063187-AddedOffRampEdge" to="121980283.9" departLane="random" departSpeed="7.267271502"/>
  <trip id="39" depart="19.4" from="6063187-AddedOffRampEdge" to="397355152" departLane="random" departSpeed="12.9583351651852"/>
  <trip id="40" depart="20.5" from="6063187-AddedOffRampEdge" to="121980283.9" departLane="random" departSpeed="12.957414769971145"/>
  <trip id="41" depart="21.0" from="6063187-AddedOffRampEdge" to="121980283.9" departLane="random" departSpeed="4.770037456645731"/>
  <trip id="42" depart="22.0" from="6063187-AddedOffRampEdge" to="121980283.9" departLane="random" departSpeed="32.235199149149985"/>
  <trip id="43" depart="22.4" from="6063187-AddedOffRampEdge" to="121980283.9" departLane="random" departSpeed="16.544802124578638"/>
  <trip id="44" depart="22.6" from="6063187-AddedOffRampEdge" to="121980283.9" departLane="random" departSpeed="32.51394148"/>
  <trip id="45" depart="23.0" from="6063187-AddedOffRampEdge" to="121980283.9" departLane="random" departSpeed="18.75138274938237"/>
  <trip id="46" depart="23.3" from="6063187-AddedOffRampEdge" to="121980283.9" departLane="random" departSpeed="33.81116899861578"/>
  <trip id="47" depart="23.9" from="6063187-AddedOffRampEdge" to="121980283.9" departLane="random" departSpeed="23.31892813848916"/>
  <trip id="48" depart="24.4" from="6063187-AddedOffRampEdge" to="121980283.9" departLane="random" departSpeed="34.304736918461074"/>
  <trip id="49" depart="24.7" from="297204299" to="121980283.9" departLane="random" departSpeed="34.23282418"/>
  <trip id="50" depart="24.8" from="6063187-AddedOffRampEdge" to="121980283.9" departLane="random" departSpeed="15.908357668625758"/>
  <trip id="51" depart="24.9" from="6063187-AddedOffRampEdge" to="121980283.9" departLane="random" departSpeed="8.970869532042657"/>
  <trip id="52" depart="25.0" from="6063187-AddedOffRampEdge" to="121980283.9" departLane="random" departSpeed="34.50933492"/>
  <trip id="53" depart="25.1" from="6063187-AddedOffRampEdge" to="121980283.9" departLane="random" departSpeed="6.924410562396637"/>
  <trip id="54" depart="26.0" from="6063187-AddedOffRampEdge" to="121980283.9" departLane="random" departSpeed="27.26069994"/>
  <trip id="55" depart="26.5" from="6063187-AddedOffRampEdge" to="121980283.9" departLane="random" departSpeed="29.64379655527186"/>
  <trip id="56" depart="26.7" from="6063187-AddedOffRampEdge" to="121980283.9" departLane="random" departSpeed="35.07398074"/>
  <trip id="57" depart="27.1" from="6063187-AddedOffRampEdge" to="121980283.9" departLane="random" departSpeed="33.81116899861578"/>
  <trip id="58" depart="27.2" from="6063187-AddedOffRampEdge" to="121980283.9" departLane="random" departSpeed="33.907135088580524"/>
  <trip id="59" depart="28.4" from="6063187-AddedOffRampEdge" to="397355152" departLane="random" departSpeed="27.44399857447493"/>
  <trip id="60" depart="29.7" from="297204299" to="121980283.9" departLane="random" departSpeed="33.05483020426598"/>
  <trip id="61" depart="30.6" from="6063187-AddedOffRampEdge" to="121980283.9" departLane="random" departSpeed="34.89404649432115"/>
  <trip id="62" depart="30.8" from="6063187-AddedOffRampEdge" to="121980283.9" departLane="random" departSpeed="34.50933492"/>
  <trip id="63" depart="30.9" from="6063187-AddedOffRampEdge" to="121980283.9" departLane="random" departSpeed="23.4468405411239"/>
  <trip id="64" depart="31.0" from="6063187-AddedOffRampEdge" to="121980283.9" departLane="random" departSpeed="29.07709189351034"/>
  <trip id="65" depart="31.3" from="6063187-AddedOffRampEdge" to="121980283.9" departLane="random" departSpeed="25.12781362122456"/>
  <trip id="66" depart="31.4" from="297204299" to="121980283.9" departLane="random" departSpeed="33.82249778431291"/>
  <trip id="67" depart="31.4" from="6063187-AddedOffRampEdge" to="121980283.9" departLane="random" departSpeed="15.908357668625758"/>
  <trip id="68" depart="33.7" from="6063187-AddedOffRampEdge" to="397355152" departLane="random" departSpeed="28.21769768055353"/>
  <trip id="69" depart="34.5" from="6063187-AddedOffRampEdge" to="121980283.9" departLane="random" departSpeed="9.51510975867069"/>
  <trip id="70" depart="35.0" from="6063187-AddedOffRampEdge" to="121980283.9" departLane="random" departSpeed="13.4441664"/>
  <trip id="71" depart="35.1" from="6063187-AddedOffRampEdge" to="121980283.9" departLane="random" departSpeed="12.291408926934988"/>
  <trip id="72" depart="36.0" from="6063187-AddedOffRampEdge" to="121980283.9" departLane="random" departSpeed="33.8707054881056"/>
  <trip id="73" depart="36.6" from="6063187-AddedOffRampEdge" to="121980283.9" departLane="random" departSpeed="20.86333104"/>
  <trip id="74" depart="36.7" from="6063187-AddedOffRampEdge" to="121980283.9" departLane="random" departSpeed="33.8625605562468"/>
  <trip id="75" depart="38.2" from="6063187-AddedOffRampEdge" to="397355152" departLane="random" departSpeed="19.0470835916868"/>
  <trip id="76" depart="38.2" from="297204299" to="121980283.9" departLane="random" departSpeed="6.288929845450441"/>
  <trip id="77" depart="38.5" from="6063187-AddedOffRampEdge" to="121980283.9" departLane="random" departSpeed="33.28238505092622"/>
  <trip id="78" depart="39.4" from="6063187-AddedOffRampEdge" to="121980283.9" departLane="random" departSpeed="33.59126233488732"/>
  <trip id="79" depart="39.9" from="6063187-AddedOffRampEdge" to="397355152" departLane="random" departSpeed="34.6169800758097"/>
  <trip id="80" depart="40.3" from="6063187-AddedOffRampEdge" to="121980283.9" departLane="random" departSpeed="29.46205863667712"/>
  <trip id="81" depart="40.8" from="6063187-AddedOffRampEdge" to="121980283.9" departLane="random" departSpeed="8.574370172"/>
  <trip id="82" depart="40.9" from="6063187-AddedOffRampEdge" to="121980283.9" departLane="random" departSpeed="6.288929845450441"/>
  <trip id="83" depart="41.0" from="6063187-AddedOffRampEdge" to="121980283.9" departLane="random" departSpeed="34.89058609"/>
  <trip id="84" depart="41.7" from="6063187-AddedOffRampEdge" to="121980283.9" departLane="random" departSpeed="32.07501443767365"/>
  <trip id="85" depart="41.8" from="6063187-AddedOffRampEdge" to="121980283.9" departLane="random" departSpeed="15.908357668625758"/>
  <trip id="86" depart="42.7" from="6063187-AddedOffRampEdge" to="121980283.9" departLane="random" departSpeed="12.957414769971145"/>
  <trip id="87" depart="42.9" from="6063187-AddedOffRampEdge" to="121980283.9" departLane="random" departSpeed="12.957414769971145"/>
  <trip id="88" depart="43.8" from="297204299" to="121980283.9" departLane="random" departSpeed="27.850429404665"/>
  <trip id="89" depart="44.4" from="6063187-AddedOffRampEdge" to="121980283.9" departLane="random" departSpeed="34.14799584270608"/>
  <trip id="90" depart="45.9" from="6063187-AddedOffRampEdge" to="121980283.9" departLane="random" departSpeed="35.50911227"/>
  <trip id="91" depart="46.0" from="6063187-AddedOffRampEdge" to="121980283.9" departLane="random" departSpeed="6.288929845450441"/>
  <trip id="92" depart="46.1" from="6063187-AddedOffRampEdge" to="121980283.9" departLane="random" departSpeed="18.87903877207733"/>
  <trip id="93" depart="46.6" from="6063187-AddedOffRampEdge" to="121980283.9" departLane="random" departSpeed="14.830074822390053"/>
  <trip id="94" depart="47.3" from="6063187-AddedOffRampEdge" to="121980283.9" departLane="random" departSpeed="24.124616030582253"/>
  <trip id="95" depart="47.7" from="6063187-AddedOffRampEdge" to="121980283.9" departLane="random" departSpeed="34.45241240872041"/>
  <trip id="96" depart="47.9" from="297204299" to="121980283.9" departLane="random" departSpeed="34.11596117"/>
  <trip id="97" depart="48.6" from="6063187-AddedOffRampEdge" to="121980283.9" departLane="random" departSpeed="7.565659494386214"/>
  <trip id="98" depart="49.3" from="6063187-AddedOffRampEdge" to="121980283.9" departLane="random" departSpeed="4.322596599030778"/>
  <trip id="99" depart="49.9" from="6063187-AddedOffRampEdge" to="121980283.9" departLane="random" departSpeed="12.66182666"/>
  <trip id="100" depart="50.6" from="6063187-AddedOffRampEdge" to="121980283.9" departLane="random" departSpeed="33.61554436424756"/>
  <trip id="101" depart="51.1" from="6063187-AddedOffRampEdge" to="397355152" departLane="random" departSpeed="27.04474311145533"/>
  <trip id="102" depart="51.5" from="6063187-AddedOffRampEdge" to="121980283.9" departLane="random" departSpeed="33.254265863707744"/>
  <trip id="103" depart="52.0" from="6063187-AddedOffRampEdge" to="121980283.9" departLane="random" departSpeed="33.8707054881056"/>
  <trip id="104" depart="52.6" from="6063187-AddedOffRampEdge" to="121980283.9" departLane="random" departSpeed="33.8625605562468"/>
  <trip id="105" depart="53.0" from="6063187-AddedOffRampEdge" to="121980283.9" departLane="random" departSpeed="30.082117020456582"/>
  <trip id="106" depart="53.4" from="6063187-AddedOffRampEdge" to="121980283.9" departLane="random" departSpeed="29.883680960643648"/>
  <trip id="107" depart="53.8" from="6063187-AddedOffRampEdge" to="121980283.9" departLane="random" departSpeed="34.488001974930974"/>
  <trip id="108" depart="54.9" from="6063187-AddedOffRampEdge" to="121980283.9" departLane="random" departSpeed="27.459013514345543"/>
  <trip id="109" depart="55.5" from="297204299" to="121980283.9" departLane="random" departSpeed="13.499428108345542"/>
  <trip id="110" depart="55.5" from="6063187-AddedOffRampEdge" to="121980283.9" departLane="random" departSpeed="27.94589325680829"/>
  <trip id="111" depart="55.9" from="297204299" to="121980283.9" departLane="random" departSpeed="8.574370172"/>
  <trip id="112" depart="56.6" from="6063187-AddedOffRampEdge" to="121980283.9" departLane="random" departSpeed="27.26069994"/>
  <trip id="113" depart="57.4" from="6063187-AddedOffRampEdge" to="121980283.9" departLane="random" departSpeed="29.19317665"/>
  <trip id="114" depart="58.1" from="6063187-AddedOffRampEdge" to="397355152" departLane="random" departSpeed="34.86475836065382"/>
  <trip id="115" depart="59.3" from="6063187-AddedOffRampEdge" to="121980283.9" departLane="random" departSpeed="31.888974"/>
  <trip id="116" depart="60.7" from="6063187-AddedOffRampEdge" to="121980283.9" departLane="random" departSpeed="25.393931089433647"/>
  <trip id="117" depart="60.8" from="6063187-AddedOffRampEdge" to="121980283.9" departLane="random" departSpeed="16.544802124578638"/>
  <trip id="118" depart="60.9" from="6063187-AddedOffRampEdge" to="121980283.9" departLane="random" departSpeed="25.94447246"/>
  <trip id="119" depart="62.3" from="6063187-AddedOffRampEdge" to="121980283.9" departLane="random" departSpeed="31.224557160337245"/>
  <trip id="120" depart="63.6" from="6063187-AddedOffRampEdge" to="121980283.9" departLane="random" departSpeed="32.29103127611514"/>
  <trip id="121" depart="64.0" from="6063187-AddedOffRampEdge" to="121980283.9" departLane="random" departSpeed="20.2512139776802"/>
  <trip id="122" depart="64.2" from="6063187-AddedOffRampEdge" to="121980283.9" departLane="random" departSpeed="33.8625605562468"/>
  <trip id="123" depart="64.7" from="6063187-AddedOffRampEdge" to="121980283.9" departLane="random" departSpeed="34.304736918461074"/>
  <trip id="124" depart="65.1" from="297204299" to="121980283.9" departLane="random" departSpeed="19.0470835916868"/>
  <trip id="125" depart="65.2" from="6063187-AddedOffRampEdge" to="121980283.9" departLane="random" departSpeed="30.23922768411074"/>
  <trip id="126" depart="65.4" from="6063187-AddedOffRampEdge" to="121980283.9" departLane="random" departSpeed="34.23282418"/>
  <trip id="127" depart="65.7" from="6063187-AddedOffRampEdge" to="121980283.9" departLane="random" departSpeed="34.488001974930974"/>
  <trip id="128" depart="67.8" from="6063187-AddedOffRampEdge" to="121980283.9" departLane="random" departSpeed="34.32006377530932"/>
  <trip id="129" depart="69.0" from="6063187-AddedOffRampEdge" to="121980283.9" departLane="random" departSpeed="16.544802124578638"/>
  <trip id="130" depart="69.1" from="6063187-AddedOffRampEdge" to="121980283.9" departLane="random" departSpeed="34.14799584270608"/>
  <trip id="131" depart="69.8" from="6063187-AddedOffRampEdge" to="121980283.9" departLane="random" departSpeed="35.50911227"/>
  <trip id="132" depart="70.0" from="6063187-AddedOffRampEdge" to="397355152" departLane="random" departSpeed="29.07709189351034"/>
  <trip id="133" depart="70.1" from="6063187-AddedOffRampEdge" to="121980283.9" departLane="random" departSpeed="33.42811646463369"/>
  <trip id="134" depart="70.2" from="6063187-AddedOffRampEdge" to="121980283.9" departLane="random" departSpeed="12.291408926934988"/>
  <trip id="135" depart="70.3" from="6063187-AddedOffRampEdge" to="121980283.9" departLane="random" departSpeed="20.86333104"/>
  <trip id="136" depart="70.4" from="6063187-AddedOffRampEdge" to="121980283.9" departLane="random" departSpeed="31.460881002468"/>
  <trip id="137" depart="70.5" from="6063187-AddedOffRampEdge" to="121980283.9" departLane="random" departSpeed="29.883680960643648"/>
  <trip id="138" depart="70.6" from="6063187-AddedOffRampEdge" to="121980283.9" departLane="random" departSpeed="29.77557329"/>
  <trip id="139" depart="71.2" from="6063187-AddedOffRampEdge" to="121980283.9" departLane="random" departSpeed="34.716161"/>
  <trip id="140" depart="71.2" from="297204299" to="121980283.9" departLane="random" departSpeed="34.38287535"/>
  <trip id="141" depart="71.4" from="6063187-AddedOffRampEdge" to="121980283.9" departLane="random" departSpeed="18.75138274938237"/>
  <trip id="142" depart="74.0" from="6063187-AddedOffRampEdge" to="121980283.9" departLane="random" departSpeed="14.830074822390053"/>
  <trip id="143" depart="74.1" from="6063187-AddedOffRampEdge" to="121980283.9" departLane="random" departSpeed="16.544802124578638"/>
  <trip id="144" depart="74.9" from="6063187-AddedOffRampEdge" to="121980283.9" departLane="random" departSpeed="23.275679709212543"/>
  <trip id="145" depart="75.1" from="6063187-AddedOffRampEdge" to="121980283.9" departLane="random" departSpeed="14.830074822390053"/>
  <trip id="146" depart="75.5" from="6063187-AddedOffRampEdge" to="121980283.9" departLane="random" departSpeed="18.75138274938237"/>
  <trip id="147" depart="75.6" from="297204299" to="121980283.9" departLane="random" departSpeed="34.14799584270608"/>
  <trip id="148" depart="76.0" from="6063187-AddedOffRampEdge" to="397355152" departLane="random" departSpeed="13.499428108345542"/>
  <trip id="149" depart="76.2" from="6063187-AddedOffRampEdge" to="121980283.9" departLane="random" departSpeed="30.23922768411074"/>
  <trip id="150" depart="76.4" from="6063187-AddedOffRampEdge" to="397355152" departLane="random" departSpeed="4.322596599030778"/>
  <trip id="151" depart="76.6" from="6063187-AddedOffRampEdge" to="121980283.9" departLane="random" departSpeed="16.544802124578638"/>
  <trip id="152" depart="76.8" from="6063187-AddedOffRampEdge" to="121980283.9" departLane="random" departSpeed="34.488001974930974"/>
  <trip id="153" depart="77.6" from="297204299" to="121980283.9" departLane="random" departSpeed="33.88825374753824"/>
  <trip id="154" depart="78.9" from="6063187-AddedOffRampEdge" to="121980283.9" departLane="random" departSpeed="24.124616030582253"/>
  <trip id="155" depart="79.5" from="6063187-AddedOffRampEdge" to="121980283.9" departLane="random" departSpeed="33.82249778431291"/>
  <trip id="156" depart="79.6" from="6063187-AddedOffRampEdge" to="121980283.9" departLane="random" departSpeed="7.565659494386214"/>
  <trip id="157" depart="79.7" from="6063187-AddedOffRampEdge" to="121980283.9" departLane="random" departSpeed="34.0327329"/>
  <trip id="158" depart="80.3" from="6063187-AddedOffRampEdge" to="121980283.9" departLane="random" departSpeed="34.34100371"/>
  <trip id="159" depart="80.6" from="6063187-AddedOffRampEdge" to="121980283.9" departLane="random" departSpeed="18.75138274938237"/>
  <trip id="160" depart="80.7" from="6063187-AddedOffRampEdge" to="121980283.9" departLane="random" departSpeed="25.58651400232842"/>
  <trip id="161" depart="82.1" from="6063187-AddedOffRampEdge" to="121980283.9" departLane="random" departSpeed="29.77557329"/>
  <trip id="162" depart="83.1" from="6063187-AddedOffRampEdge" to="397355152" departLane="random" departSpeed="32.15299253689358"/>
  <trip id="163" depart="84.0" from="6063187-AddedOffRampEdge" to="121980283.9" departLane="random" departSpeed="31.33285699"/>
  <trip id="164" depart="84.7" from="297204299" to="121980283.9" departLane="random" departSpeed="26.54848239"/>
  <trip id="165" depart="84.9" from="6063187-AddedOffRampEdge" to="121980283.9" departLane="random" departSpeed="34.358737476047615"/>
  <trip id="166" depart="86.3" from="6063187-AddedOffRampEdge" to="121980283.9" departLane="random" departSpeed="34.32006377530932"/>
  <trip id="167" depart="86.4" from="6063187-AddedOffRampEdge" to="121980283.9" departLane="random" departSpeed="18.81896409"/>
  <trip id="168" depart="86.6" from="6063187-AddedOffRampEdge" to="121980283.9" departLane="random" departSpeed="34.6169800758097"/>
  <trip id="169" depart="87.1" from="6063187-AddedOffRampEdge" to="121980283.9" departLane="random" departSpeed="29.348824747664167"/>
  <trip id="170" depart="88.0" from="6063187-AddedOffRampEdge" to="121980283.9" departLane="random" departSpeed="12.957414769971145"/>
  <trip id="171" depart="88.6" from="6063187-AddedOffRampEdge" to="121980283.9" departLane="random" departSpeed="12.321570253476748"/>
  <trip id="172" depart="88.8" from="6063187-AddedOffRampEdge" to="121980283.9" departLane="random" departSpeed="34.304736918461074"/>
  <trip id="173" depart="88.9" from="6063187-AddedOffRampEdge" to="121980283.9" departLane="random" departSpeed="27.04474311145533"/>
  <trip id="174" depart="90.0" from="6063187-AddedOffRampEdge" to="121980283.9" departLane="random" departSpeed="33.05483020426598"/>
  <trip id="175" depart="90.3" from="6063187-AddedOffRampEdge" to="397355152" departLane="random" departSpeed="18.87903877207733"/>
  <trip id="176" depart="90.5" from="6063187-AddedOffRampEdge" to="121980283.9" departLane="random" departSpeed="26.54848239"/>
  <trip id="177" depart="90.6" from="6063187-AddedOffRampEdge" to="121980283.9" departLane="random" departSpeed="15.908357668625758"/>
  <trip id="178" depart="91.0" from="6063187-AddedOffRampEdge" to="121980283.9" departLane="random" departSpeed="31.307845253519325"/>
  <trip id="179" depart="93.0" from="6063187-AddedOffRampEdge" to="121980283.9" departLane="random" departSpeed="29.07709189351034"/>
  <trip id="180" depart="93.1" from="6063187-AddedOffRampEdge" to="121980283.9" departLane="random" departSpeed="6.288929845450441"/>
  <trip id="181" depart="93.2" from="6063187-AddedOffRampEdge" to="121980283.9" departLane="random" departSpeed="19.0470835916868"/>
  <trip id="182" depart="95.3" from="6063187-AddedOffRampEdge" to="121980283.9" departLane="random" departSpeed="12.291408926934988"/>
  <trip id="183" depart="95.4" from="6063187-AddedOffRampEdge" to="121980283.9" departLane="random" departSpeed="34.34100371"/>
  <trip id="184" depart="96.3" from="6063187-AddedOffRampEdge" to="121980283.9" departLane="random" departSpeed="12.9583351651852"/>
  <trip id="185" depart="97.0" from="6063187-AddedOffRampEdge" to="121980283.9" departLane="random" departSpeed="34.0327329"/>
  <trip id="186" depart="97.8" from="6063187-AddedOffRampEdge" to="121980283.9" departLane="random" departSpeed="23.03819318001528"/>
  <trip id="187" depart="98.1" from="6063187-AddedOffRampEdge" to="397355152" departLane="random" departSpeed="31.49735004570736"/>
  <trip id="188" depart="98.4" from="6063187-AddedOffRampEdge" to="121980283.9" departLane="random" departSpeed="34.6169800758097"/>
  <trip id="189" depart="98.5" from="6063187-AddedOffRampEdge" to="121980283.9" departLane="random" departSpeed="29.19317665"/>
  <trip id="190" depart="98.7" from="6063187-AddedOffRampEdge" to="121980283.9" departLane="random" departSpeed="16.544802124578638"/>
  <trip id="191" depart="98.8" from="6063187-AddedOffRampEdge" to="121980283.9" departLane="random" departSpeed="27.850429404665"/>
  <trip id="192" depart="100.3" from="6063187-AddedOffRampEdge" to="121980283.9" departLane="random" departSpeed="33.81116899861578"/>
  <trip id="193" depart="100.6" from="6063187-AddedOffRampEdge" to="121980283.9" departLane="random" departSpeed="35.12486718879205"/>
  <trip id="194" depart="100.7" from="6063187-AddedOffRampEdge" to="121980283.9" departLane="random" departSpeed="34.89404649432115"/>
  <trip id="195" depart="100.8" from="6063187-AddedOffRampEdge" to="121980283.9" departLane="random" departSpeed="32.29103127611514"/>
  <trip id="196" depart="101.0" from="6063187-AddedOffRampEdge" to="121980283.9" departLane="random" departSpeed="30.403312899741632"/>
  <trip id="197" depart="101.4" from="6063187-AddedOffRampEdge" to="121980283.9" departLane="random" departSpeed="6.288929845450441"/>
  <trip id="198" depart="101.8" from="6063187-AddedOffRampEdge" to="121980283.9" departLane="random" departSpeed="33.82249778431291"/>
  <trip id="199" depart="102.1" from="6063187-AddedOffRampEdge" to="121980283.9" departLane="random" departSpeed="32.29377484"/>
  <trip id="200" depart="102.2" from="6063187-AddedOffRampEdge" to="121980283.9" departLane="random" departSpeed="33.81116899861578"/>
  <trip id="201" depart="102.6" from="6063187-AddedOffRampEdge" to="121980283.9" departLane="random" departSpeed="29.64379655527186"/>
  <trip id="202" depart="103.2" from="6063187-AddedOffRampEdge" to="121980283.9" departLane="random" departSpeed="34.38287535"/>
  <trip id="203" depart="103.3" from="6063187-AddedOffRampEdge" to="121980283.9" departLane="random" departSpeed="31.49735004570736"/>
  <trip id="204" depart="103.7" from="6063187-AddedOffRampEdge" to="121980283.9" departLane="random" departSpeed="34.304736918461074"/>
  <trip id="205" depart="104.7" from="6063187-AddedOffRampEdge" to="121980283.9" departLane="random" departSpeed="32.29377484"/>
  <trip id="206" depart="104.9" from="6063187-AddedOffRampEdge" to="121980283.9" departLane="random" departSpeed="31.11508405"/>
  <trip id="207" depart="105.3" from="297204299" to="121980283.9" departLane="random" departSpeed="35.07398074"/>
  <trip id="208" depart="106.2" from="6063187-AddedOffRampEdge" to="121980283.9" departLane="random" departSpeed="34.170367851185595"/>
  <trip id="209" depart="106.6" from="6063187-AddedOffRampEdge" to="121980283.9" departLane="random" departSpeed="9.037660321035824"/>
  <trip id="210" depart="106.8" from="297204299" to="121980283.9" departLane="random" departSpeed="25.393931089433647"/>
  <trip id="211" depart="108.2" from="6063187-AddedOffRampEdge" to="121980283.9" departLane="random" departSpeed="23.275679709212543"/>
  <trip id="212" depart="109.2" from="6063187-AddedOffRampEdge" to="121980283.9" departLane="random" departSpeed="18.81896409"/>
  <trip id="213" depart="109.9" from="6063187-AddedOffRampEdge" to="397355152" departLane="random" departSpeed="33.8707054881056"/>
  <trip id="214" depart="111.1" from="6063187-AddedOffRampEdge" to="121980283.9" departLane="random" departSpeed="34.7611202"/>
  <trip id="215" depart="111.3" from="6063187-AddedOffRampEdge" to="121980283.9" departLane="random" departSpeed="8.893738796642095"/>
  <trip id="216" depart="111.5" from="297204299" to="121980283.9" departLane="random" departSpeed="33.8707054881056"/>
  <trip id="217" depart="111.6" from="297204299" to="121980283.9" departLane="random" departSpeed="34.45241240872041"/>
  <trip id="218" depart="111.7" from="6063187-AddedOffRampEdge" to="397355152" departLane="random" departSpeed="33.8707054881056"/>
  <trip id="219" depart="111.9" from="6063187-AddedOffRampEdge" to="121980283.9" departLane="random" departSpeed="27.459013514345543"/>
  <trip id="220" depart="112.2" from="6063187-AddedOffRampEdge" to="121980283.9" departLane="random" departSpeed="34.89404649432115"/>
  <trip id="221" depart="112.3" from="297204299" to="121980283.9" departLane="random" departSpeed="29.46205863667712"/>
  <trip id="222" depart="112.4" from="6063187-AddedOffRampEdge" to="121980283.9" departLane="random" departSpeed="34.86475836065382"/>
  <trip id="223" depart="113.0" from="6063187-AddedOffRampEdge" to="121980283.9" departLane="random" departSpeed="34.0327329"/>
  <trip id="224" depart="113.1" from="6063187-AddedOffRampEdge" to="121980283.9" departLane="random" departSpeed="18.75138274938237"/>
  <trip id="225" depart="113.6" from="6063187-AddedOffRampEdge" to="121980283.9" departLane="random" departSpeed="34.6169800758097"/>
  <trip id="226" depart="113.9" from="6063187-AddedOffRampEdge" to="121980283.9" departLane="random" departSpeed="33.61554436424756"/>
  <trip id="227" depart="114.1" from="6063187-AddedOffRampEdge" to="121980283.9" departLane="random" departSpeed="34.11596117"/>
  <trip id="228" depart="114.5" from="6063187-AddedOffRampEdge" to="121980283.9" departLane="random" departSpeed="12.291408926934988"/>
  <trip id="229" depart="114.9" from="6063187-AddedOffRampEdge" to="121980283.9" departLane="random" departSpeed="8.574370172"/>