<?xml version="1.0" ?>
<trips>
  <trip id="1" depart="0.4" from="992387151#1" to="377623249#1-AddedOnRampEdge" departLane="random" departSpeed="34.488001974930974"/>
  <trip id="2" depart="1.4" from="31144126.151" to="377623249#1-AddedOnRampEdge" departLane="random" departSpeed="32.29103127611514"/>
  <trip id="3" depart="2.5" from="992387151#1" to="377623249#1-AddedOnRampEdge" departLane="random" departSpeed="29.883680960643648"/>
  <trip id="4" depart="3.1" from="992387151#1" to="377623249#1-AddedOnRampEdge" departLane="random" departSpeed="31.307845253519325"/>
  <trip id="5" depart="3.5" from="992387151#1" to="377623249#1-AddedOnRampEdge" departLane="random" departSpeed="31.49735004570736"/>
  <trip id="6" depart="3.7" from="38878546.568" to="377623249#1-AddedOnRampEdge" departLane="random" departSpeed="32.91385190026813"/>
  <trip id="7" depart="4.0" from="992387151#1" to="377623249#1-AddedOnRampEdge" departLane="random" departSpeed="34.34100371"/>
  <trip id="8" depart="5.3" from="992387151#1" to="377623249#1-AddedOnRampEdge" departLane="random" departSpeed="4.770037456645731"/>
  <trip id="9" depart="5.6" from="992387151#1" to="24067154" departLane="random" departSpeed="33.05483020426598"/>
  <trip id="10" depart="6.3" from="38878546.568" to="377623249#1-AddedOnRampEdge" departLane="random" departSpeed="13.499428108345542"/>
  <trip id="11" depart="6.3" from="24067152.262" to="377623249#1-AddedOnRampEdge" departLane="random" departSpeed="33.82249778431291"/>
  <trip id="12" depart="6.5" from="992387151#1" to="377623249#1-AddedOnRampEdge" departLane="random" departSpeed="33.254265863707744"/>
  <trip id="13" depart="6.6" from="992387151#1" to="24067154" departLane="random" departSpeed="31.66126748"/>
  <trip id="14" depart="8.3" from="992387151#1" to="377623249#1-AddedOnRampEdge" departLane="random" departSpeed="34.170367851185595"/>
  <trip id="15" depart="9.1" from="992387151#1" to="377623249#1-AddedOnRampEdge" departLane="random" departSpeed="33.05483020426598"/>
  <trip id="16" depart="10.7" from="992387151#1" to="377623249#1-AddedOnRampEdge" departLane="random" departSpeed="34.44736131121993"/>
  <trip id="17" depart="11.6" from="992387151#1" to="377623249#1-AddedOnRampEdge" departLane="random" departSpeed="29.07709189351034"/>
  <trip id="18" depart="11.8" from="992387151#1" to="377623249#1-AddedOnRampEdge" departLane="random" departSpeed="35.11034661"/>
  <trip id="19" depart="12.3" from="992387151#1" to="377623249#1-AddedOnRampEdge" departLane="random" departSpeed="32.07501443767365"/>
  <trip id="20" depart="12.4" from="992387151#1" to="377623249#1-AddedOnRampEdge" departLane="random" departSpeed="34.45241240872041"/>
  <trip id="21" depart="13.3" from="992387151#1" to="377623249#1-AddedOnRampEdge" departLane="random" departSpeed="25.58651400232842"/>
  <trip id="22" depart="13.9" from="31144126.151" to="377623249#1-AddedOnRampEdge" departLane="random" departSpeed="26.689085055536"/>
  <trip id="23" depart="15.7" from="992387151#1" to="377623249#1-AddedOnRampEdge" departLane="random" departSpeed="31.224557160337245"/>
  <trip id="24" depart="16.4" from="24067152.262" to="377623249#1-AddedOnRampEdge" departLane="random" departSpeed="28.21769768055353"/>
  <trip id="25" depart="16.9" from="992387151#1" to="377623249#1-AddedOnRampEdge" departLane="random" departSpeed="12.957414769971145"/>
  <trip id="26" depart="17.0" from="31144126.151" to="377623249#1-AddedOnRampEdge" departLane="random" departSpeed="12.321570253476748"/>
  <trip id="27" depart="18.6" from="992387151#1" to="24067154" departLane="random" departSpeed="27.44399857447493"/>
  <trip id="28" depart="18.9" from="992387151#1" to="377623249#1-AddedOnRampEdge" departLane="random" departSpeed="34.358737476047615"/>
  <trip id="29" depart="19.0" from="992387151#1" to="24067155" departLane="random" departSpeed="33.907135088580524"/>
  <trip id="30" depart="19.0" from="992387151#1" to="377623249#1-AddedOnRampEdge" departLane="random" departSpeed="19.0470835916868"/>
  <trip id="31" depart="19.4" from="992387151#1" to="377623249#1-AddedOnRampEdge" departLane="random" departSpeed="34.14799584270608"/>
  <trip id="32" depart="21.5" from="992387151#1" to="377623249#1-AddedOnRampEdge" departLane="random" departSpeed="34.304736918461074"/>
  <trip id="33" depart="22.9" from="992387151#1" to="24067155" departLane="random" departSpeed="32.91436593725302"/>
  <trip id="34" depart="24.6" from="992387151#1" to="24067155" departLane="random" departSpeed="28.21769768055353"/>
  <trip id="35" depart="24.8" from="992387151#1" to="377623249#1-AddedOnRampEdge" departLane="random" departSpeed="15.908357668625758"/>
  <trip id="36" depart="26.2" from="38878546.568" to="377623249#1-AddedOnRampEdge" departLane="random" departSpeed="31.460881002468"/>
  <trip id="37" depart="27.3" from="38878546.568" to="377623249#1-AddedOnRampEdge" departLane="random" departSpeed="12.957414769971145"/>
  <trip id="38" depart="27.5" from="992387151#1" to="377623249#1-AddedOnRampEdge" departLane="random" departSpeed="32.91385190026813"/>
  <trip id="39" depart="27.8" from="992387151#1" to="24067154" departLane="random" departSpeed="16.544802124578638"/>
  <trip id="40" depart="28.2" from="992387151#1" to="24067155" departLane="random" departSpeed="33.59126233488732"/>
  <trip id="41" depart="28.2" from="992387151#1" to="377623249#1-AddedOnRampEdge" departLane="random" departSpeed="31.460881002468"/>
  <trip id="42" depart="29.0" from="992387151#1" to="377623249#1-AddedOnRampEdge" departLane="random" departSpeed="28.21769768055353"/>
  <trip id="43" depart="29.2" from="38878546.568" to="377623249#1-AddedOnRampEdge" departLane="random" departSpeed="32.07501443767365"/>
  <trip id="44" depart="29.6" from="992387151#1" to="24067154" departLane="random" departSpeed="23.4468405411239"/>
  <trip id="45" depart="29.7" from="992387151#1" to="377623249#1-AddedOnRampEdge" departLane="random" departSpeed="16.544802124578638"/>
  <trip id="46" depart="30.1" from="992387151#1" to="377623249#1-AddedOnRampEdge" departLane="random" departSpeed="23.03819318001528"/>
  <trip id="47" depart="30.2" from="992387151#1" to="377623249#1-AddedOnRampEdge" departLane="random" departSpeed="12.9583351651852"/>
  <trip id="48" depart="31.7" from="38878546.568" to="377623249#1-AddedOnRampEdge" departLane="random" departSpeed="25.58651400232842"/>
  <trip id="49" depart="33.0" from="992387151#1" to="377623249#1-AddedOnRampEdge" departLane="random" departSpeed="33.8707054881056"/>
  <trip id="50" depart="34.4" from="992387151#1" to="377623249#1-AddedOnRampEdge" departLane="random" departSpeed="15.908357668625758"/>
  <trip id="51" depart="34.7" from="992387151#1" to="377623249#1-AddedOnRampEdge" departLane="random" departSpeed="12.957414769971145"/>
  <trip id="52" depart="35.0" from="992387151#1" to="377623249#1-AddedOnRampEdge" departLane="random" departSpeed="25.393931089433647"/>
  <trip id="53" depart="36.8" from="24067152.262" to="377623249#1-AddedOnRampEdge" departLane="random" departSpeed="34.45241240872041"/>
  <trip id="54" depart="37.3" from="992387151#1" to="377623249#1-AddedOnRampEdge" departLane="random" departSpeed="33.59776951570754"/>
  <trip id="55" depart="37.5" from="24067152.262" to="377623249#1-AddedOnRampEdge" departLane="random" departSpeed="28.21769768055353"/>
  <trip id="56" depart="37.5" from="992387151#1" to="377623249#1-AddedOnRampEdge" departLane="random" departSpeed="33.090632395770214"/>
  <trip id="57" depart="37.7" from="992387151#1" to="377623249#1-AddedOnRampEdge" departLane="random" departSpeed="29.64379655527186"/>
  <trip id="58" depart="38.6" from="992387151#1" to="24067154" departLane="random" departSpeed="34.7611202"/>
  <trip id="59" depart="40.4" from="38878546.568" to="24067154" departLane="random" departSpeed="33.497300967754605"/>
  <trip id="60" depart="41.0" from="992387151#1" to="377623249#1-AddedOnRampEdge" departLane="random" departSpeed="16.544802124578638"/>
  <trip id="61" depart="41.6" from="38878546.568" to="377623249#1-AddedOnRampEdge" departLane="random" departSpeed="23.31892813848916"/>
  <trip id="62" depart="41.8" from="31144126.151" to="377623249#1-AddedOnRampEdge" departLane="random" departSpeed="33.05483020426598"/>
  <trip id="63" depart="42.4" from="992387151#1" to="377623249#1-AddedOnRampEdge" departLane="random" departSpeed="34.86475836065382"/>
  <trip id="64" depart="43.0" from="992387151#1" to="24067154" departLane="random" departSpeed="27.459013514345543"/>
  <trip id="65" depart="43.5" from="992387151#1" to="377623249#1-AddedOnRampEdge" departLane="random" departSpeed="33.090632395770214"/>
  <trip id="66" depart="43.7" from="992387151#1" to="24067154" departLane="random" departSpeed="34.488001974930974"/>
  <trip id="67" depart="44.3" from="992387151#1" to="377623249#1-AddedOnRampEdge" departLane="random" departSpeed="16.544802124578638"/>
  <trip id="68" depart="44.7" from="992387151#1" to="377623249#1-AddedOnRampEdge" departLane="random" departSpeed="34.488001974930974"/>
  <trip id="69" depart="44.9" from="992387151#1" to="377623249#1-AddedOnRampEdge" departLane="random" departSpeed="33.907135088580524"/>
  <trip id="70" depart="45.9" from="992387151#1" to="377623249#1-AddedOnRampEdge" departLane="random" departSpeed="32.91436593725302"/>
  <trip id="71" depart="46.1" from="992387151#1" to="377623249#1-AddedOnRampEdge" departLane="random" departSpeed="34.32006377530932"/>
  <trip id="72" depart="46.5" from="38878546.568" to="377623249#1-AddedOnRampEdge" departLane="random" departSpeed="33.8707054881056"/>
  <trip id="73" depart="47.0" from="31144126.151" to="377623249#1-AddedOnRampEdge" departLane="random" departSpeed="34.358737476047615"/>
  <trip id="74" depart="47.2" from="992387151#1" to="24067154" departLane="random" departSpeed="33.8625605562468"/>
  <trip id="75" depart="47.5" from="992387151#1" to="377623249#1-AddedOnRampEdge" departLane="random" departSpeed="14.830074822390053"/>
  <trip id="76" depart="47.6" from="992387151#1" to="377623249#1-AddedOnRampEdge" departLane="random" departSpeed="16.544802124578638"/>
  <trip id="77" depart="48.0" from="992387151#1" to="377623249#1-AddedOnRampEdge" departLane="random" departSpeed="23.275679709212543"/>
  <trip id="78" depart="48.3" from="31144126.151" to="377623249#1-AddedOnRampEdge" departLane="random" departSpeed="23.31892813848916"/>
  <trip id="79" depart="50.0" from="992387151#1" to="377623249#1-AddedOnRampEdge" departLane="random" departSpeed="34.488001974930974"/>
  <trip id="80" depart="50.1" from="992387151#1" to="377623249#1-AddedOnRampEdge" departLane="random" departSpeed="34.14799584270608"/>
  <trip id="81" depart="51.0" from="992387151#1" to="377623249#1-AddedOnRampEdge" departLane="random" departSpeed="29.883680960643648"/>
  <trip id="82" depart="51.1" from="31144126.151" to="377623249#1-AddedOnRampEdge" departLane="random" departSpeed="23.275679709212543"/>
  <trip id="83" depart="52.1" from="992387151#1" to="377623249#1-AddedOnRampEdge" departLane="random" departSpeed="34.38287535"/>
  <trip id="84" depart="52.7" from="992387151#1" to="24067155" departLane="random" departSpeed="35.4222410112534"/>
  <trip id="85" depart="53.1" from="992387151#1" to="377623249#1-AddedOnRampEdge" departLane="random" departSpeed="12.957414769971145"/>
  <trip id="86" depart="53.5" from="992387151#1" to="377623249#1-AddedOnRampEdge" departLane="random" departSpeed="34.304736918461074"/>
  <trip id="87" depart="53.6" from="24067152.262" to="377623249#1-AddedOnRampEdge" departLane="random" departSpeed="28.846495342809515"/>
  <trip id="88" depart="54.2" from="992387151#1" to="377623249#1-AddedOnRampEdge" departLane="random" departSpeed="33.090632395770214"/>
  <trip id="89" depart="54.3" from="38878546.568" to="24067155" departLane="random" departSpeed="19.0470835916868"/>
  <trip id="90" depart="54.8" from="992387151#1" to="377623249#1-AddedOnRampEdge" departLane="random" departSpeed="7.208008305190351"/>
  <trip id="91" depart="55.7" from="992387151#1" to="377623249#1-AddedOnRampEdge" departLane="random" departSpeed="34.488001974930974"/>
  <trip id="92" depart="58.1" from="38878546.568" to="377623249#1-AddedOnRampEdge" departLane="random" departSpeed="26.6817310996075"/>
  <trip id="93" depart="59.1" from="38878546.568" to="377623249#1-AddedOnRampEdge" departLane="random" departSpeed="28.21769768055353"/>
  <trip id="94" depart="59.1" from="38878546.568" to="24067154" departLane="random" departSpeed="16.544802124578638"/>
  <trip id="95" depart="59.3" from="38878546.568" to="24067155" departLane="random" departSpeed="4.322596599030778"/>
  <trip id="96" depart="59.9" from="992387151#1" to="377623249#1-AddedOnRampEdge" departLane="random" departSpeed="32.29103127611514"/>
  <trip id="97" depart="60.2" from="992387151#1" to="377623249#1-AddedOnRampEdge" departLane="random" departSpeed="31.460881002468"/>
  <trip id="98" depart="60.6" from="38878546.568" to="24067155" departLane="random" departSpeed="34.89404649432115"/>
  <trip id="99" depart="61.3" from="992387151#1" to="377623249#1-AddedOnRampEdge" departLane="random" departSpeed="32.56367086631645"/>
  <trip id="100" depart="65.6" from="992387151#1" to="377623249#1-AddedOnRampEdge" departLane="random" departSpeed="15.908357668625758"/>
  <trip id="101" depart="66.5" from="992387151#1" to="377623249#1-AddedOnRampEdge" departLane="random" departSpeed="33.09037671933137"/>
  <trip id="102" depart="66.8" from="992387151#1" to="377623249#1-AddedOnRampEdge" departLane="random" departSpeed="33.497300967754605"/>
  <trip id="103" depart="67.3" from="24067152.262" to="377623249#1-AddedOnRampEdge" departLane="random" departSpeed="33.61554436424756"/>
  <trip id="104" depart="67.6" from="992387151#1" to="377623249#1-AddedOnRampEdge" departLane="random" departSpeed="31.307845253519325"/>
  <trip id="105" depart="68.5" from="31144126.151" to="377623249#1-AddedOnRampEdge" departLane="random" departSpeed="34.45241240872041"/>
  <trip id="106" depart="70.1" from="992387151#1" to="377623249#1-AddedOnRampEdge" departLane="random" departSpeed="25.58651400232842"/>
  <trip id="107" depart="70.2" from="38878546.568" to="377623249#1-AddedOnRampEdge" departLane="random" departSpeed="23.275679709212543"/>
  <trip id="108" depart="70.2" from="992387151#1" to="377623249#1-AddedOnRampEdge" departLane="random" departSpeed="32.56367086631645"/>
  <trip id="109" depart="70.7" from="992387151#1" to="377623249#1-AddedOnRampEdge" departLane="random" departSpeed="23.03819318001528"/>
  <trip id="110" depart="70.8" from="992387151#1" to="377623249#1-AddedOnRampEdge" departLane="random" departSpeed="34.45241240872041"/>
  <trip id="111" depart="71.1" from="992387151#1" to="24067154" departLane="random" departSpeed="23.03819318001528"/>
  <trip id="112" depart="71.5" from="992387151#1" to="377623249#1-AddedOnRampEdge" departLane="random" departSpeed="25.393931089433647"/>
  <trip id="113" depart="71.7" from="992387151#1" to="377623249#1-AddedOnRampEdge" departLane="random" departSpeed="23.6624366"/>
  <trip id="114" depart="71.8" from="992387151#1" to="377623249#1-AddedOnRampEdge" departLane="random" departSpeed="28.21769768055353"/>
  <trip id="115" depart="71.9" from="992387151#1" to="377623249#1-AddedOnRampEdge" departLane="random" departSpeed="12.291408926934988"/>
  <trip id="116" depart="72.2" from="992387151#1" to="377623249#1-AddedOnRampEdge" departLane="random" departSpeed="12.291408926934988"/>
  <trip id="117" depart="72.3" from="992387151#1" to="377623249#1-AddedOnRampEdge" departLane="random" departSpeed="34.14799584270608"/>
  <trip id="118" depart="72.8" from="992387151#1" to="377623249#1-AddedOnRampEdge" departLane="random" departSpeed="33.497300967754605"/>
  <trip id="119" depart="73.4" from="992387151#1" to="377623249#1-AddedOnRampEdge" departLane="random" departSpeed="23.275679709212543"/>
  <trip id="120" depart="73.8" from="992387151#1" to="377623249#1-AddedOnRampEdge" departLane="random" departSpeed="4.322596599030778"/>
  <trip id="121" depart="75.7" from="992387151#1" to="24067155" departLane="random" departSpeed="32.29103127611514"/>
  <trip id="122" depart="76.2" from="992387151#1" to="24067155" departLane="random" departSpeed="31.49735004570736"/>
  <trip id="123" depart="77.1" from="992387151#1" to="377623249#1-AddedOnRampEdge" departLane="random" departSpeed="34.45241240872041"/>
  <trip id="124" depart="77.4" from="38878546.568" to="24067155" departLane="random" departSpeed="35.12486718879205"/>
  <trip id="125" depart="78.5" from="24067152.262" to="377623249#1-AddedOnRampEdge" departLane="random" departSpeed="31.307845253519325"/>
  <trip id="126" depart="81.1" from="992387151#1" to="377623249#1-AddedOnRampEdge" departLane="random" departSpeed="33.497300967754605"/>
  <trip id="127" depart="83.5" from="992387151#1" to="377623249#1-AddedOnRampEdge" departLane="random" departSpeed="25.58651400232842"/>
  <trip id="128" depart="83.6" from="992387151#1" to="377623249#1-AddedOnRampEdge" departLane="random" departSpeed="18.75138274938237"/>
  <trip id="129" depart="84.0" from="992387151#1" to="377623249#1-AddedOnRampEdge" departLane="random" departSpeed="33.090632395770214"/>
  <trip id="130" depart="84.1" from="992387151#1" to="377623249#1-AddedOnRampEdge" departLane="random" departSpeed="16.544802124578638"/>
  <trip id="131" depart="84.2" from="24067152.262" to="377623249#1-AddedOnRampEdge" departLane="random" departSpeed="31.460881002468"/>
  <trip id="132" depart="84.4" from="38878546.568" to="377623249#1-AddedOnRampEdge" departLane="random" departSpeed="34.86475836065382"/>
  <trip id="133" depart="84.6" from="992387151#1" to="377623249#1-AddedOnRampEdge" departLane="random" departSpeed="31.56189316"/>
  <trip id="134" depart="86.0" from="992387151#1" to="377623249#1-AddedOnRampEdge" departLane="random" departSpeed="33.59126233488732"/>
  <trip id="135" depart="86.2" from="992387151#1" to="377623249#1-AddedOnRampEdge" departLane="random" departSpeed="16.544802124578638"/>
  <trip id="136" depart="86.6" from="38878546.568" to="377623249#1-AddedOnRampEdge" departLane="random" departSpeed="29.07709189351034"/>
  <trip id="137" depart="87.3" from="992387151#1" to="377623249#1-AddedOnRampEdge" departLane="random" departSpeed="33.28238505092622"/>
  <trip id="138" depart="88.8" from="992387151#1" to="377623249#1-AddedOnRampEdge" departLane="random" departSpeed="33.907135088580524"/>
  <trip id="139" depart="89.8" from="992387151#1" to="377623249#1-AddedOnRampEdge" departLane="random" departSpeed="34.170367851185595"/>
  <trip id="140" depart="90.2" from="992387151#1" to="377623249#1-AddedOnRampEdge" departLane="random" departSpeed="32.07501443767365"/>
  <trip id="141" depart="90.3" from="992387151#1" to="24067154" departLane="random" departSpeed="34.488001974930974"/>
  <trip id="142" depart="90.8" from="992387151#1" to="377623249#1-AddedOnRampEdge" departLane="random" departSpeed="28.26108588084233"/>
  <trip id="143" depart="90.9" from="992387151#1" to="377623249#1-AddedOnRampEdge" departLane="random" departSpeed="34.32006377530932"/>
  <trip id="144" depart="92.2" from="38878546.568" to="377623249#1-AddedOnRampEdge" departLane="random" departSpeed="18.75138274938237"/>
  <trip id="145" depart="92.6" from="992387151#1" to="377623249#1-AddedOnRampEdge" departLane="random" departSpeed="29.883680960643648"/>
  <trip id="146" depart="93.4" from="992387151#1" to="377623249#1-AddedOnRampEdge" departLane="random" departSpeed="32.56367086631645"/>
  <trip id="147" depart="93.6" from="992387151#1" to="377623249#1-AddedOnRampEdge" departLane="random" departSpeed="23.03819318001528"/>
  <trip id="148" depart="95.3" from="38878546.568" to="377623249#1-AddedOnRampEdge" departLane="random" departSpeed="35.12486718879205"/>
  <trip id="149" depart="96.6" from="992387151#1" to="377623249#1-AddedOnRampEdge" departLane="random" departSpeed="28.25888583"/>
  <trip id="150" depart="97.3" from="38878546.568" to="24067155" departLane="random" departSpeed="16.544802124578638"/>
  <trip id="151" depart="97.5" from="992387151#1" to="377623249#1-AddedOnRampEdge" departLane="random" departSpeed="33.59776951570754"/>
  <trip id="152" depart="98.0" from="31144126.151" to="377623249#1-AddedOnRampEdge" departLane="random" departSpeed="31.888974"/>
  <trip id="153" depart="98.5" from="992387151#1" to="377623249#1-AddedOnRampEdge" departLane="random" departSpeed="33.05483020426598"/>
  <trip id="154" depart="98.6" from="992387151#1" to="377623249#1-AddedOnRampEdge" departLane="random" departSpeed="14.830074822390053"/>
  <trip id="155" depart="98.7" from="992387151#1" to="377623249#1-AddedOnRampEdge" departLane="random" departSpeed="33.8707054881056"/>
  <trip id="156" depart="99.1" from="992387151#1" to="377623249#1-AddedOnRampEdge" departLane="random" departSpeed="33.497300967754605"/>
  <trip id="157" depart="99.2" from="38878546.568" to="377623249#1-AddedOnRampEdge" departLane="random" departSpeed="32.07501443767365"/>
  <trip id="158" depart="99.8" from="38878546.568" to="377623249#1-AddedOnRampEdge" departLane="random" departSpeed="33.82249778431291"/>
  <trip id="159" depart="100.5" from="992387151#1" to="377623249#1-AddedOnRampEdge" departLane="random" departSpeed="32.07501443767365"/>
  <trip id="160" depart="100.6" from="992387151#1" to="377623249#1-AddedOnRampEdge" departLane="random" departSpeed="33.09037671933137"/>
  <trip id="161" depart="100.8" from="992387151#1" to="377623249#1-AddedOnRampEdge" departLane="random" departSpeed="33.05483020426598"/>
  <trip id="162" depart="100.8" from="24067152.262" to="377623249#1-AddedOnRampEdge" departLane="random" departSpeed="34.32006377530932"/>
  <trip id="163" depart="101.1" from="992387151#1" to="377623249#1-AddedOnRampEdge" departLane="random" departSpeed="17.24595167"/>
  <trip id="164" depart="101.2" from="38878546.568" to="377623249#1-AddedOnRampEdge" departLane="random" departSpeed="34.32006377530932"/>
  <trip id="165" depart="102.8" from="992387151#1" to="24067154" departLane="random" departSpeed="33.81116899861578"/>
  <trip id="166" depart="104.0" from="31144126.151" to="377623249#1-AddedOnRampEdge" departLane="random" departSpeed="34.10421680056501"/>
  <trip id="167" depart="104.1" from="31144126.151" to="377623249#1-AddedOnRampEdge" departLane="random" departSpeed="18.75138274938237"/>
  <trip id="168" depart="104.5" from="992387151#1" to="24067155" departLane="random" departSpeed="34.14799584270608"/>
  <trip id="169" depart="106.1" from="992387151#1" to="377623249#1-AddedOnRampEdge" departLane="random" departSpeed="22.37625127"/>
  <trip id="170" depart="106.4" from="992387151#1" to="377623249#1-AddedOnRampEdge" departLane="random" departSpeed="25.58651400232842"/>
  <trip id="171" depart="106.5" from="31144126.151" to="377623249#1-AddedOnRampEdge" departLane="random" departSpeed="34.6169800758097"/>
  <trip id="172" depart="107.2" from="992387151#1" to="377623249#1-AddedOnRampEdge" departLane="random" departSpeed="34.488001974930974"/>
  <trip id="173" depart="107.7" from="992387151#1" to="377623249#1-AddedOnRampEdge" departLane="random" departSpeed="34.89404649432115"/>
  <trip id="174" depart="108.2" from="24067152.262" to="377623249#1-AddedOnRampEdge" departLane="random" departSpeed="34.45241240872041"/>
  <trip id="175" depart="108.2" from="992387151#1" to="377623249#1-AddedOnRampEdge" departLane="random" departSpeed="34.14799584270608"/>
  <trip id="176" depart="108.9" from="992387151#1" to="377623249#1-AddedOnRampEdge" departLane="random" departSpeed="34.14799584270608"/>
  <trip id="177" depart="109.0" from="992387151#1" to="377623249#1-AddedOnRampEdge" departLane="random" departSpeed="34.14799584270608"/>
  <trip id="178" depart="109.1" from="992387151#1" to="377623249#1-AddedOnRampEdge" departLane="random" departSpeed="34.14799584270608"/>
  <trip id="179" depart="109.7" from="992387151#1" to="377623249#1-AddedOnRampEdge" departLane="random" departSpeed="34.78547759343283"/>
  <trip id="180" depart="110.1" from="992387151#1" to="377623249#1-AddedOnRampEdge" departLane="random" departSpeed="33.59126233488732"/>
  <trip id="181" depart="110.9" from="24067152.262" to="377623249#1-AddedOnRampEdge" departLane="random" departSpeed="33.907135088580524"/>
  <trip id="182" depart="111.0" from="24067152.262" to="377623249#1-AddedOnRampEdge" departLane="random" departSpeed="33.8707054881056"/>
  <trip id="183" depart="111.3" from="992387151#1" to="377623249#1-AddedOnRampEdge" departLane="random" departSpeed="34.45241240872041"/>
  <trip id="184" depart="112.2" from="38878546.568" to="24067155" departLane="random" departSpeed="32.51394148"/>
  <trip id="185" depart="112.2" from="992387151#1" to="377623249#1-AddedOnRampEdge" departLane="random" departSpeed="23.31892813848916"/>
  <trip id="186" depart="112.3" from="992387151#1" to="24067155" departLane="random" departSpeed="32.07501443767365"/>
  <trip id="187" depart="112.3" from="992387151#1" to="377623249#1-AddedOnRampEdge" departLane="random" departSpeed="31.888974"/>
  <trip id="188" depart="113.0" from="992387151#1" to="377623249#1-AddedOnRampEdge" departLane="random" departSpeed="32.29103127611514"/>
  <trip id="189" depart="113.5" from="992387151#1" to="377623249#1-AddedOnRampEdge" departLane="random" departSpeed="29.883680960643648"/>
  <trip id="190" depart="113.6" from="38878546.568" to="377623249#1-AddedOnRampEdge" departLane="random" departSpeed="4.322596599030778"/>
  <trip id="191" depart="113.7" from="992387151#1" to="377623249#1-AddedOnRampEdge" departLane="random" departSpeed="33.82249778431291"/>
  <trip id="192" depart="113.8" from="38878546.568" to="24067155" departLane="random" departSpeed="34.304736918461074"/>
  <trip id="193" depart="113.9" from="38878546.568" to="377623249#1-AddedOnRampEdge" departLane="random" departSpeed="34.304736918461074"/>
  <trip id="194" depart="114.3" from="38878546.568" to="377623249#1-AddedOnRampEdge" departLane="random" departSpeed="33.8707054881056"/>
  <trip id="195" depart="115.7" from="992387151#1" to="377623249#1-AddedOnRampEdge" departLane="random" departSpeed="34.304736918461074"/>
  <trip id="196" depart="115.8" from="992387151#1" to="377623249#1-AddedOnRampEdge" departLane="random" departSpeed="16.544802124578638"/>
  <trip id="197" depart="116.5" from="992387151#1" to="377623249#1-AddedOnRampEdge" departLane="random" departSpeed="12.291408926934988"/>
  <trip id="198" depart="118.1" from="992387151#1" to="377623249#1-AddedOnRampEdge" departLane="random" departSpeed="33.99263238874535"/>
  <trip id="199" depart="118.4" from="992387151#1" to="377623249#1-AddedOnRampEdge" departLane="random" departSpeed="33.09037671933137"/>
  <trip id="200" depart="118.7" from="24067152.262" to="377623249#1-AddedOnRampEdge" departLane="random" departSpeed="33.59776951570754"/>
  <trip id="201" depart="121.3" from="38878546.568" to="377623249#1-AddedOnRampEdge" departLane="random" departSpeed="32.91436593725302"/>
  <trip id="202" depart="121.4" from="38878546.568" to="24067154" departLane="random" departSpeed="33.87827552413766"/>
  <trip id="203" depart="121.4" from="992387151#1" to="377623249#1-AddedOnRampEdge" departLane="random" departSpeed="23.4468405411239"/>
  <trip id="204" depart="121.6" from="992387151#1" to="377623249#1-AddedOnRampEdge" departLane="random" departSpeed="35.11034661"/>
  <trip id="205" depart="122.7" from="992387151#1" to="377623249#1-AddedOnRampEdge" departLane="random" departSpeed="34.170367851185595"/>
  <trip id="206" depart="122.8" from="992387151#1" to="24067154" departLane="random" departSpeed="33.497300967754605"/>
  <trip id="207" depart="123.2" from="38878546.568" to="377623249#1-AddedOnRampEdge" departLane="random" departSpeed="33.99263238874535"/>
  <trip id="208" depart="123.6" from="992387151#1" to="377623249#1-AddedOnRampEdge" departLane="random" departSpeed="13.499428108345542"/>
  <trip id="209" depart="124.4" from="38878546.568" to="24067154" departLane="random" departSpeed="32.91385190026813"/>
  <trip id="210" depart="124.4" from="992387151#1" to="377623249#1-AddedOnRampEdge" departLane="random" departSpeed="34.44736131121993"/>
  <trip id="211" depart="124.6" from="992387151#1" to="377623249#1-AddedOnRampEdge" departLane="random" departSpeed="33.61554436424756"/>
  <trip id="212" depart="125.9" from="992387151#1" to="24067154" departLane="random" departSpeed="25.393931089433647"/>
  <trip id="213" depart="126.3" from="992387151#1" to="24067155" departLane="random" departSpeed="4.322596599030778"/>
  <trip id="214" depart="126.6" from="992387151#1" to="377623249#1-AddedOnRampEdge" departLane="random" departSpeed="34.89404649432115"/>
  <trip id="215" depart="127.5" from="38878546.568" to="377623249#1-AddedOnRampEdge" departLane="random" departSpeed="34.490190473929154"/>
  <trip id="216" depart="127.5" from="992387151#1" to="377623249#1-AddedOnRampEdge" departLane="random" departSpeed="23.4468405411239"/>
  <trip id="217" depart="128.3" from="992387151#1" to="377623249#1-AddedOnRampEdge" departLane="random" departSpeed="12.291408926934988"/>
  <trip id="218" depart="128.4" from="992387151#1" to="377623249#1-AddedOnRampEdge" departLane="random" departSpeed="32.56367086631645"/>
  <trip id="219" depart="129.8" from="992387151#1" to="377623249#1-AddedOnRampEdge" departLane="random" departSpeed="18.75138274938237"/>
  <trip id="220" depart="130.2" from="992387151#1" to="377623249#1-AddedOnRampEdge" departLane="random" departSpeed="33.907135088580524"/>
  <trip id="221" depart="130.7" from="992387151#1" to="24067155" departLane="random" departSpeed="34.45241240872041"/>
  <trip id="222" depart="131.6" from="992387151#1" to="24067154" departLane="random" departSpeed="34.23282418"/>
  <trip id="223" depart="132.0" from="992387151#1" to="377623249#1-AddedOnRampEdge" departLane="random" departSpeed="34.78017891220951"/>
  <trip id="224" depart="132.1" from="31144126.151" to="377623249#1-AddedOnRampEdge" departLane="random" departSpeed="12.957414769971145"/>