<?xml version="1.0" encoding="UTF-8"?>

<!-- generated on 2026-02-07 14:56:53 by Eclipse SUMO netedit Version 1.21.0
<neteditConfiguration xmlns:xsi="http://www.w3.org/2001/XMLSchema-instance" xsi:noNamespaceSchemaLocation="http://sumo.dlr.de/xsd/neteditConfiguration.xsd">

    <input>
        <sumo-net-file value="freeway_2lane_template_on_on_off_off.net.xml"/>
    </input>

    <output>
        <output-file value="freeway_2lane_template_on_on_off_off.net.xml"/>
    </output>

    <processing>
        <geometry.min-radius.fix.railways value="false"/>
        <geometry.max-grade.fix value="false"/>
        <offset.disable-normalization value="true"/>
        <lefthand value="0"/>
    </processing>

    <junctions>
        <no-turnarounds value="true"/>
        <junctions.corner-detail value="5"/>
        <junctions.limit-turn-speed value="5.50"/>
        <rectangular-lane-cut value="0"/>
    </junctions>

    <pedestrian>
        <walkingareas value="0"/>
    </pedestrian>

</neteditConfiguration>
-->

<net version="1.20" junctionCornerDetail="5" limitTurnSpeed="5.50" xmlns:xsi="http://www.w3.org/2001/XMLSchema-instance" xsi:noNamespaceSchemaLocation="http://sumo.dlr.de/xsd/net_file.xsd">

    <location netOffset="0.00,0.00" convBoundary="-500.00,-100.00,1100.00,0.00" origBoundary="-10000000000.00,-10000000000.00,10000000000.00,10000000000.00" projParameter="!"/>

    <edge id=":Off_Ramp2_Start_0" function="internal">
        <lane id=":Off_Ramp2_Start_0_0" index="0" speed="10.28" length="3.71" shape="910.54,-8.00 911.64,-8.02 912.40,-8.11 913.11,-8.36 914.10,-8.84"/>
    </edge>
    <edge id=":Off_Ramp2_Start_1" function="internal">
        <lane id=":Off_Ramp2_Start_1_0" index="0" speed="13.89" length="3.76" shape="910.54,-4.80 914.30,-4.80"/>
        <lane id=":Off_Ramp2_Start_1_1" index="1" speed="13.89" length="3.76" shape="910.54,-1.60 914.30,-1.60"/>
    </edge>
    <edge id=":Off_Ramp2_Taper_Start_0" function="internal">
        <lane id=":Off_Ramp2_Taper_Start_0_0" index="0" speed="13.89" length="8.27" shape="696.00,-4.80 698.46,-5.30 700.00,-6.40 701.54,-7.50 704.00,-8.00"/>
        <lane id=":Off_Ramp2_Taper_Start_0_1" index="1" speed="13.89" length="8.27" shape="696.00,-4.80 704.00,-4.80"/>
        <lane id=":Off_Ramp2_Taper_Start_0_2" index="2" speed="13.89" length="8.27" shape="696.00,-1.60 704.00,-1.60"/>
    </edge>
    <edge id=":On_Ramp1_End_0" function="internal">
        <lane id=":On_Ramp1_End_0_0" index="0" speed="10.28" length="3.71" shape="-314.10,-8.84 -313.11,-8.36 -312.40,-8.11 -311.64,-8.02 -310.54,-8.00"/>
    </edge>
    <edge id=":On_Ramp1_End_1" function="internal">
        <lane id=":On_Ramp1_End_1_0" index="0" speed="13.89" length="3.76" shape="-314.30,-4.80 -310.54,-4.80"/>
        <lane id=":On_Ramp1_End_1_1" index="1" speed="13.89" length="3.76" shape="-314.30,-1.60 -310.54,-1.60"/>
    </edge>
    <edge id=":On_Ramp1_Taper_End_0" function="internal">
        <lane id=":On_Ramp1_Taper_End_0_0" index="0" speed="13.89" length="8.00" shape="-104.00,-4.80 -96.00,-4.80"/>
        <lane id=":On_Ramp1_Taper_End_0_1" index="1" speed="13.89" length="8.00" shape="-104.00,-1.60 -96.00,-1.60"/>
    </edge>
    <edge id=":Weaving_End_0" function="internal">
        <lane id=":Weaving_End_0_0" index="0" speed="10.28" length="3.71" shape="510.54,-8.00 511.64,-8.02 512.40,-8.11 513.11,-8.36 514.10,-8.84"/>
    </edge>
    <edge id=":Weaving_End_1" function="internal">
        <lane id=":Weaving_End_1_0" index="0" speed="13.89" length="3.76" shape="510.54,-4.80 514.30,-4.80"/>
        <lane id=":Weaving_End_1_1" index="1" speed="13.89" length="3.76" shape="510.54,-1.60 514.30,-1.60"/>
    </edge>
    <edge id=":Weaving_Start_0" function="internal">
        <lane id=":Weaving_Start_0_0" index="0" speed="10.28" length="3.71" shape="85.90,-8.84 86.89,-8.36 87.60,-8.11 88.36,-8.02 89.46,-8.00"/>
    </edge>
    <edge id=":Weaving_Start_1" function="internal">
        <lane id=":Weaving_Start_1_0" index="0" speed="13.89" length="3.76" shape="85.70,-4.80 89.46,-4.80"/>
        <lane id=":Weaving_Start_1_1" index="1" speed="13.89" length="3.76" shape="85.70,-1.60 89.46,-1.60"/>
    </edge>

    <edge id="After_Weaving" from="Weaving_End" to="Off_Ramp2_Taper_Start" priority="-1">
        <lane id="After_Weaving_0" index="0" speed="13.89" length="181.70" shape="514.30,-4.80 696.00,-4.80"/>
        <lane id="After_Weaving_1" index="1" speed="13.89" length="181.70" shape="514.30,-1.60 696.00,-1.60"/>
    </edge>
    <edge id="Before_Weaving" from="On_Ramp1_Taper_End" to="Weaving_Start" priority="-1">
        <lane id="Before_Weaving_0" index="0" speed="13.89" length="181.70" shape="-96.00,-4.80 85.70,-4.80"/>
        <lane id="Before_Weaving_1" index="1" speed="13.89" length="181.70" shape="-96.00,-1.60 85.70,-1.60"/>
    </edge>
    <edge id="Input" from="Start" to="On_Ramp1_End" priority="-1">
        <lane id="Input_0" index="0" speed="13.89" length="185.70" shape="-500.00,-4.80 -314.30,-4.80"/>
        <lane id="Input_1" index="1" speed="13.89" length="185.70" shape="-500.00,-1.60 -314.30,-1.60"/>
    </edge>
    <edge id="Off_Ramp1" from="Weaving_End" to="Off_Ramp1_End" priority="-1">
        <lane id="Off_Ramp1_0" index="0" speed="13.89" length="207.04" shape="514.10,-8.84 699.28,-101.43"/>
    </edge>
    <edge id="Off_Ramp2" from="Off_Ramp2_Start" to="Off_Ramp2_End" priority="-1">
        <lane id="Off_Ramp2_0" index="0" speed="13.89" length="207.04" shape="914.10,-8.84 1099.28,-101.43"/>
    </edge>
    <edge id="Off_Ramp2_Taper" from="Off_Ramp2_Taper_Start" to="Off_Ramp2_Start" priority="-1">
        <lane id="Off_Ramp2_Taper_0" index="0" speed="13.89" length="206.54" shape="704.00,-8.00 910.54,-8.00"/>
        <lane id="Off_Ramp2_Taper_1" index="1" speed="13.89" length="206.54" shape="704.00,-4.80 910.54,-4.80"/>
        <lane id="Off_Ramp2_Taper_2" index="2" speed="13.89" length="206.54" shape="704.00,-1.60 910.54,-1.60"/>
    </edge>
    <edge id="On_Ramp1" from="On_Ramp1_Start" to="On_Ramp1_End" priority="-1">
        <lane id="On_Ramp1_0" index="0" speed="13.89" length="207.04" shape="-499.28,-101.43 -314.10,-8.84"/>
    </edge>
    <edge id="On_Ramp1_Taper" from="On_Ramp1_End" to="On_Ramp1_Taper_End" priority="-1">
        <lane id="On_Ramp1_Taper_0" index="0" speed="13.89" length="206.54" shape="-310.54,-8.00 -104.00,-8.00"/>
        <lane id="On_Ramp1_Taper_1" index="1" speed="13.89" length="206.54" shape="-310.54,-4.80 -104.00,-4.80"/>
        <lane id="On_Ramp1_Taper_2" index="2" speed="13.89" length="206.54" shape="-310.54,-1.60 -104.00,-1.60"/>
    </edge>
    <edge id="On_Ramp2" from="On_Ramp2_Start" to="Weaving_Start" priority="-1">
        <lane id="On_Ramp2_0" index="0" speed="13.89" length="207.04" shape="-99.28,-101.43 85.90,-8.84"/>
    </edge>
    <edge id="Output" from="Off_Ramp2_Start" to="End" priority="-1">
        <lane id="Output_0" index="0" speed="13.89" length="185.70" shape="914.30,-4.80 1100.00,-4.80"/>
        <lane id="Output_1" index="1" speed="13.89" length="185.70" shape="914.30,-1.60 1100.00,-1.60"/>
    </edge>
    <edge id="Weaving_Area" from="Weaving_Start" to="Weaving_End" priority="-1">
        <lane id="Weaving_Area_0" index="0" speed="13.89" length="421.09" shape="89.46,-8.00 510.54,-8.00"/>
        <lane id="Weaving_Area_1" index="1" speed="13.89" length="421.09" shape="89.46,-4.80 510.54,-4.80"/>
        <lane id="Weaving_Area_2" index="2" speed="13.89" length="421.09" shape="89.46,-1.60 510.54,-1.60"/>
    </edge>

    <junction id="End" type="dead_end" x="1100.00" y="0.00" incLanes="Output_0 Output_1" intLanes="" shape="1100.00,-6.40 1100.00,0.00"/>
    <junction id="Off_Ramp1_End" type="dead_end" x="700.00" y="-100.00" incLanes="Off_Ramp1_0" intLanes="" shape="698.57,-102.86 700.00,-100.00"/>
    <junction id="Off_Ramp2_End" type="dead_end" x="1100.00" y="-100.00" incLanes="Off_Ramp2_0" intLanes="" shape="1098.57,-102.86 1100.00,-100.00"/>
    <junction id="Off_Ramp2_Start" type="priority" x="900.00" y="0.00" incLanes="Off_Ramp2_Taper_0 Off_Ramp2_Taper_1 Off_Ramp2_Taper_2" intLanes=":Off_Ramp2_Start_0_0 :Off_Ramp2_Start_1_0 :Off_Ramp2_Start_1_1" shape="914.30,0.00 914.30,-6.40 913.69,-6.51 913.68,-6.65 913.86,-6.85 914.24,-7.10 914.82,-7.41 913.39,-10.27 912.39,-9.81 912.02,-9.69 911.64,-9.63 911.17,-9.60 910.54,-9.60 910.54,0.00">
        <request index="0" response="000" foes="000" cont="0"/>
        <request index="1" response="000" foes="000" cont="0"/>
        <request index="2" response="000" foes="000" cont="0"/>
    </junction>
    <junction id="Off_Ramp2_Taper_Start" type="priority" x="700.00" y="0.00" incLanes="After_Weaving_0 After_Weaving_1" intLanes=":Off_Ramp2_Taper_Start_0_0 :Off_Ramp2_Taper_Start_0_1 :Off_Ramp2_Taper_Start_0_2" shape="704.00,0.00 704.00,-9.60 700.97,-8.77 699.03,-7.23 697.79,-6.64 696.00,-6.40 696.00,0.00">
        <request index="0" response="000" foes="000" cont="0"/>
        <request index="1" response="000" foes="000" cont="0"/>
        <request index="2" response="000" foes="000" cont="0"/>
    </junction>
    <junction id="On_Ramp1_End" type="priority" x="-300.00" y="0.00" incLanes="On_Ramp1_0 Input_0 Input_1" intLanes=":On_Ramp1_End_0_0 :On_Ramp1_End_1_0 :On_Ramp1_End_1_1" shape="-310.54,0.00 -310.54,-9.60 -311.64,-9.63 -312.02,-9.69 -312.39,-9.81 -312.82,-9.99 -313.39,-10.27 -314.82,-7.41 -313.86,-6.85 -313.68,-6.65 -313.69,-6.51 -313.90,-6.43 -314.30,-6.40 -314.30,0.00">
        <request index="0" response="000" foes="000" cont="0"/>
        <request index="1" response="000" foes="000" cont="0"/>
        <request index="2" response="000" foes="000" cont="0"/>
    </junction>
    <junction id="On_Ramp1_Start" type="dead_end" x="-500.00" y="-100.00" incLanes="" intLanes="" shape="-500.00,-100.00 -498.57,-102.86"/>
    <junction id="On_Ramp1_Taper_End" type="priority" x="-100.00" y="0.00" incLanes="On_Ramp1_Taper_0 On_Ramp1_Taper_1 On_Ramp1_Taper_2" intLanes=":On_Ramp1_Taper_End_0_0 :On_Ramp1_Taper_End_0_1" shape="-96.00,0.00 -96.00,-6.40 -99.03,-7.23 -100.97,-8.77 -102.21,-9.36 -104.00,-9.60 -104.00,0.00">
        <request index="0" response="00" foes="00" cont="0"/>
        <request index="1" response="00" foes="00" cont="0"/>
    </junction>
    <junction id="On_Ramp2_Start" type="dead_end" x="-100.00" y="-100.00" incLanes="" intLanes="" shape="-100.00,-100.00 -98.57,-102.86"/>
    <junction id="Start" type="dead_end" x="-500.00" y="0.00" incLanes="" intLanes="" shape="-500.00,0.00 -500.00,-6.40"/>
    <junction id="Weaving_End" type="priority" x="500.00" y="0.00" incLanes="Weaving_Area_0 Weaving_Area_1 Weaving_Area_2" intLanes=":Weaving_End_0_0 :Weaving_End_1_0 :Weaving_End_1_1" shape="514.30,0.00 514.30,-6.40 513.69,-6.51 513.68,-6.65 513.86,-6.85 514.24,-7.10 514.82,-7.41 513.39,-10.27 512.39,-9.81 512.02,-9.69 511.64,-9.63 511.17,-9.60 510.54,-9.60 510.54,0.00">
        <request index="0" response="000" foes="000" cont="0"/>
        <request index="1" response="000" foes="000" cont="0"/>
        <request index="2" response="000" foes="000" cont="0"/>
    </junction>
    <junction id="Weaving_Start" type="priority" x="100.00" y="0.00" incLanes="On_Ramp2_0 Before_Weaving_0 Before_Weaving_1" intLanes=":Weaving_Start_0_0 :Weaving_Start_1_0 :Weaving_Start_1_1" shape="89.46,0.00 89.46,-9.60 88.36,-9.63 87.98,-9.69 87.61,-9.81 87.18,-9.99 86.61,-10.27 85.18,-7.41 86.14,-6.85 86.32,-6.65 86.31,-6.51 86.10,-6.43 85.70,-6.40 85.70,0.00">
        <request index="0" response="000" foes="000" cont="0"/>
        <request index="1" response="000" foes="000" cont="0"/>
        <request index="2" response="000" foes="000" cont="0"/>
    </junction>

    <connection from="After_Weaving" to="Off_Ramp2_Taper" fromLane="0" toLane="0" via=":Off_Ramp2_Taper_Start_0_0" dir="s" state="M"/>
    <connection from="After_Weaving" to="Off_Ramp2_Taper" fromLane="0" toLane="1" via=":Off_Ramp2_Taper_Start_0_1" dir="s" state="M"/>
    <connection from="After_Weaving" to="Off_Ramp2_Taper" fromLane="1" toLane="2" via=":Off_Ramp2_Taper_Start_0_2" dir="s" state="M"/>
    <connection from="Before_Weaving" to="Weaving_Area" fromLane="0" toLane="1" via=":Weaving_Start_1_0" dir="s" state="M"/>
    <connection from="Before_Weaving" to="Weaving_Area" fromLane="1" toLane="2" via=":Weaving_Start_1_1" dir="s" state="M"/>
    <connection from="Input" to="On_Ramp1_Taper" fromLane="0" toLane="1" via=":On_Ramp1_End_1_0" dir="s" state="M"/>
    <connection from="Input" to="On_Ramp1_Taper" fromLane="1" toLane="2" via=":On_Ramp1_End_1_1" dir="s" state="M"/>
    <connection from="Off_Ramp2_Taper" to="Off_Ramp2" fromLane="0" toLane="0" via=":Off_Ramp2_Start_0_0" dir="R" state="M"/>
    <connection from="Off_Ramp2_Taper" to="Output" fromLane="1" toLane="0" via=":Off_Ramp2_Start_1_0" dir="s" state="M"/>
    <connection from="Off_Ramp2_Taper" to="Output" fromLane="2" toLane="1" via=":Off_Ramp2_Start_1_1" dir="s" state="M"/>
    <connection from="On_Ramp1" to="On_Ramp1_Taper" fromLane="0" toLane="0" via=":On_Ramp1_End_0_0" dir="s" state="M"/>
    <connection from="On_Ramp1_Taper" to="Before_Weaving" fromLane="1" toLane="0" via=":On_Ramp1_Taper_End_0_0" dir="s" state="M"/>
    <connection from="On_Ramp1_Taper" to="Before_Weaving" fromLane="2" toLane="1" via=":On_Ramp1_Taper_End_0_1" dir="s" state="M"/>
    <connection from="On_Ramp2" to="Weaving_Area" fromLane="0" toLane="0" via=":Weaving_Start_0_0" dir="s" state="M"/>
    <connection from="Weaving_Area" to="Off_Ramp1" fromLane="0" toLane="0" via=":Weaving_End_0_0" dir="R" state="M"/>
    <connection from="Weaving_Area" to="After_Weaving" fromLane="1" toLane="0" via=":Weaving_End_1_0" dir="s" state="M"/>
    <connection from="Weaving_Area" to="After_Weaving" fromLane="2" toLane="1" via=":Weaving_End_1_1" dir="s" state="M"/>

    <connection from=":Off_Ramp2_Start_0" to="Off_Ramp2" fromLane="0" toLane="0" dir="R" state="M"/>
    <connection from=":Off_Ramp2_Start_1" to="Output" fromLane="0" toLane="0" dir="s" state="M"/>
    <connection from=":Off_Ramp2_Start_1" to="Output" fromLane="1" toLane="1" dir="s" state="M"/>
    <connection from=":Off_Ramp2_Taper_Start_0" to="Off_Ramp2_Taper" fromLane="0" toLane="0" dir="s" state="M"/>
    <connection from=":Off_Ramp2_Taper_Start_0" to="Off_Ramp2_Taper" fromLane="1" toLane="1" dir="s" state="M"/>
    <connection from=":Off_Ramp2_Taper_Start_0" to="Off_Ramp2_Taper" fromLane="2" toLane="2" dir="s" state="M"/>
    <connection from=":On_Ramp1_End_0" to="On_Ramp1_Taper" fromLane="0" toLane="0" dir="s" state="M"/>
    <connection from=":On_Ramp1_End_1" to="On_Ramp1_Taper" fromLane="0" toLane="1" dir="s" state="M"/>
    <connection from=":On_Ramp1_End_1" to="On_Ramp1_Taper" fromLane="1" toLane="2" dir="s" state="M"/>
    <connection from=":On_Ramp1_Taper_End_0" to="Before_Weaving" fromLane="0" toLane="0" dir="s" state="M"/>
    <connection from=":On_Ramp1_Taper_End_0" to="Before_Weaving" fromLane="1" toLane="1" dir="s" state="M"/>
    <connection from=":Weaving_End_0" to="Off_Ramp1" fromLane="0" toLane="0" dir="R" state="M"/>
    <connection from=":Weaving_End_1" to="After_Weaving" fromLane="0" toLane="0" dir="s" state="M"/>
    <connection from=":Weaving_End_1" to="After_Weaving" fromLane="1" toLane="1" dir="s" state="M"/>
    <connection from=":Weaving_Start_0" to="Weaving_Area" fromLane="0" toLane="0" dir="s" state="M"/>
    <connection from=":Weaving_Start_1" to="Weaving_Area" fromLane="0" toLane="1" dir="s" state="M"/>
    <connection from=":Weaving_Start_1" to="Weaving_Area" fromLane="1" toLane="2" dir="s" state="M"/>

</net>
