<?xml version="1.0" encoding="UTF-8"?>

<!-- generated on 2026-02-08 14:38:49 by Eclipse SUMO netedit Version 1.21.0
<neteditConfiguration xmlns:xsi="http://www.w3.org/2001/XMLSchema-instance" xsi:noNamespaceSchemaLocation="http://sumo.dlr.de/xsd/neteditConfiguration.xsd">

    <input>
        <sumo-net-file value="freeway_4lane_template_on_off_on_off.net.xml"/>
    </input>

    <output>
        <output-file value="freeway_4lane_template_on_off_on_off.net.xml"/>
    </output>

    <processing>
        <geometry.min-radius.fix.railways value="false"/>
        <geometry.max-grade.fix value="false"/>
        <offset.disable-normalization value="true"/>
        <lefthand value="0"/>
    </processing>

    <junctions>
        <no-turnarounds value="true"/>
        <junctions.corner-detail value="5"/>
        <junctions.limit-turn-speed value="5.50"/>
        <rectangular-lane-cut value="0"/>
    </junctions>

    <pedestrian>
        <walkingareas value="0"/>
    </pedestrian>

</neteditConfiguration>
-->

<net version="1.20" junctionCornerDetail="5" limitTurnSpeed="5.50" xmlns:xsi="http://www.w3.org/2001/XMLSchema-instance" xsi:noNamespaceSchemaLocation="http://sumo.dlr.de/xsd/net_file.xsd">

    <location netOffset="0.00,0.00" convBoundary="-100.00,-100.00,1700.00,0.00" origBoundary="-10000000000.00,-10000000000.00,10000000000.00,10000000000.00" projParameter="!"/>

    <edge id=":Weaving1_End_0" function="internal">
        <lane id=":Weaving1_End_0_0" index="0" speed="10.28" length="3.71" shape="523.34,-14.40 524.44,-14.42 525.20,-14.51 525.91,-14.76 526.90,-15.24"/>
    </edge>
    <edge id=":Weaving1_End_1" function="internal">
        <lane id=":Weaving1_End_1_0" index="0" speed="13.89" length="3.76" shape="523.34,-11.20 527.10,-11.20"/>
        <lane id=":Weaving1_End_1_1" index="1" speed="13.89" length="3.76" shape="523.34,-8.00 527.10,-8.00"/>
        <lane id=":Weaving1_End_1_2" index="2" speed="13.89" length="3.76" shape="523.34,-4.80 527.10,-4.80"/>
        <lane id=":Weaving1_End_1_3" index="3" speed="13.89" length="3.76" shape="523.34,-1.60 527.10,-1.60"/>
    </edge>
    <edge id=":Weaving1_Start_0" function="internal">
        <lane id=":Weaving1_Start_0_0" index="0" speed="10.28" length="3.71" shape="73.10,-15.24 74.09,-14.76 74.80,-14.51 75.56,-14.42 76.66,-14.40"/>
    </edge>
    <edge id=":Weaving1_Start_1" function="internal">
        <lane id=":Weaving1_Start_1_0" index="0" speed="13.89" length="3.76" shape="72.90,-11.20 76.66,-11.20"/>
        <lane id=":Weaving1_Start_1_1" index="1" speed="13.89" length="3.76" shape="72.90,-8.00 76.66,-8.00"/>
        <lane id=":Weaving1_Start_1_2" index="2" speed="13.89" length="3.76" shape="72.90,-4.80 76.66,-4.80"/>
        <lane id=":Weaving1_Start_1_3" index="3" speed="13.89" length="3.76" shape="72.90,-1.60 76.66,-1.60"/>
    </edge>
    <edge id=":Weaving2_End_0" function="internal">
        <lane id=":Weaving2_End_0_0" index="0" speed="10.28" length="3.71" shape="1523.34,-14.40 1524.44,-14.42 1525.20,-14.51 1525.91,-14.76 1526.90,-15.24"/>
    </edge>
    <edge id=":Weaving2_End_1" function="internal">
        <lane id=":Weaving2_End_1_0" index="0" speed="13.89" length="3.76" shape="1523.34,-11.20 1527.10,-11.20"/>
        <lane id=":Weaving2_End_1_1" index="1" speed="13.89" length="3.76" shape="1523.34,-8.00 1527.10,-8.00"/>
        <lane id=":Weaving2_End_1_2" index="2" speed="13.89" length="3.76" shape="1523.34,-4.80 1527.10,-4.80"/>
        <lane id=":Weaving2_End_1_3" index="3" speed="13.89" length="3.76" shape="1523.34,-1.60 1527.10,-1.60"/>
    </edge>
    <edge id=":Weaving2_Start_0" function="internal">
        <lane id=":Weaving2_Start_0_0" index="0" speed="10.28" length="3.71" shape="1073.10,-15.24 1074.09,-14.76 1074.80,-14.51 1075.56,-14.42 1076.66,-14.40"/>
    </edge>
    <edge id=":Weaving2_Start_1" function="internal">
        <lane id=":Weaving2_Start_1_0" index="0" speed="13.89" length="3.76" shape="1072.90,-11.20 1076.66,-11.20"/>
        <lane id=":Weaving2_Start_1_1" index="1" speed="13.89" length="3.76" shape="1072.90,-8.00 1076.66,-8.00"/>
        <lane id=":Weaving2_Start_1_2" index="2" speed="13.89" length="3.76" shape="1072.90,-4.80 1076.66,-4.80"/>
        <lane id=":Weaving2_Start_1_3" index="3" speed="13.89" length="3.76" shape="1072.90,-1.60 1076.66,-1.60"/>
    </edge>

    <edge id="Between_Weaving" from="Weaving1_End" to="Weaving2_Start" priority="-1">
        <lane id="Between_Weaving_0" index="0" speed="13.89" length="545.80" shape="527.10,-11.20 1072.90,-11.20"/>
        <lane id="Between_Weaving_1" index="1" speed="13.89" length="545.80" shape="527.10,-8.00 1072.90,-8.00"/>
        <lane id="Between_Weaving_2" index="2" speed="13.89" length="545.80" shape="527.10,-4.80 1072.90,-4.80"/>
        <lane id="Between_Weaving_3" index="3" speed="13.89" length="545.80" shape="527.10,-1.60 1072.90,-1.60"/>
    </edge>
    <edge id="Input" from="Start" to="Weaving1_Start" priority="-1">
        <lane id="Input_0" index="0" speed="13.89" length="172.90" shape="-100.00,-11.20 72.90,-11.20"/>
        <lane id="Input_1" index="1" speed="13.89" length="172.90" shape="-100.00,-8.00 72.90,-8.00"/>
        <lane id="Input_2" index="2" speed="13.89" length="172.90" shape="-100.00,-4.80 72.90,-4.80"/>
        <lane id="Input_3" index="3" speed="13.89" length="172.90" shape="-100.00,-1.60 72.90,-1.60"/>
    </edge>
    <edge id="Off_Ramp1" from="Weaving1_End" to="Off_Ramp1_End" priority="-1">
        <lane id="Off_Ramp1_0" index="0" speed="13.89" length="192.73" shape="526.90,-15.24 699.28,-101.43"/>
    </edge>
    <edge id="Off_Ramp2" from="Weaving2_End" to="Off_Ramp2_End" priority="-1">
        <lane id="Off_Ramp2_0" index="0" speed="13.89" length="192.73" shape="1526.90,-15.24 1699.28,-101.43"/>
    </edge>
    <edge id="On_Ramp1" from="On_Ramp1_Start" to="Weaving1_Start" priority="-1">
        <lane id="On_Ramp1_0" index="0" speed="13.89" length="192.73" shape="-99.28,-101.43 73.10,-15.24"/>
    </edge>
    <edge id="On_Ramp2" from="On_Ramp2_Start" to="Weaving2_Start" priority="-1">
        <lane id="On_Ramp2_0" index="0" speed="13.89" length="192.73" shape="900.72,-101.43 1073.10,-15.24"/>
    </edge>
    <edge id="Output" from="Weaving2_End" to="End" priority="-1">
        <lane id="Output_0" index="0" speed="13.89" length="172.90" shape="1527.10,-11.20 1700.00,-11.20"/>
        <lane id="Output_1" index="1" speed="13.89" length="172.90" shape="1527.10,-8.00 1700.00,-8.00"/>
        <lane id="Output_2" index="2" speed="13.89" length="172.90" shape="1527.10,-4.80 1700.00,-4.80"/>
        <lane id="Output_3" index="3" speed="13.89" length="172.90" shape="1527.10,-1.60 1700.00,-1.60"/>
    </edge>
    <edge id="Weaving_Area1" from="Weaving1_Start" to="Weaving1_End" priority="-1">
        <lane id="Weaving_Area1_0" index="0" speed="13.89" length="446.69" shape="76.66,-14.40 523.34,-14.40"/>
        <lane id="Weaving_Area1_1" index="1" speed="13.89" length="446.69" shape="76.66,-11.20 523.34,-11.20"/>
        <lane id="Weaving_Area1_2" index="2" speed="13.89" length="446.69" shape="76.66,-8.00 523.34,-8.00"/>
        <lane id="Weaving_Area1_3" index="3" speed="13.89" length="446.69" shape="76.66,-4.80 523.34,-4.80"/>
        <lane id="Weaving_Area1_4" index="4" speed="13.89" length="446.69" shape="76.66,-1.60 523.34,-1.60"/>
    </edge>
    <edge id="Weaving_Area2" from="Weaving2_Start" to="Weaving2_End" priority="-1">
        <lane id="Weaving_Area2_0" index="0" speed="13.89" length="446.69" shape="1076.66,-14.40 1523.34,-14.40"/>
        <lane id="Weaving_Area2_1" index="1" speed="13.89" length="446.69" shape="1076.66,-11.20 1523.34,-11.20"/>
        <lane id="Weaving_Area2_2" index="2" speed="13.89" length="446.69" shape="1076.66,-8.00 1523.34,-8.00"/>
        <lane id="Weaving_Area2_3" index="3" speed="13.89" length="446.69" shape="1076.66,-4.80 1523.34,-4.80"/>
        <lane id="Weaving_Area2_4" index="4" speed="13.89" length="446.69" shape="1076.66,-1.60 1523.34,-1.60"/>
    </edge>

    <junction id="End" type="dead_end" x="1700.00" y="0.00" incLanes="Output_0 Output_1 Output_2 Output_3" intLanes="" shape="1700.00,-12.80 1700.00,0.00"/>
    <junction id="Off_Ramp1_End" type="dead_end" x="700.00" y="-100.00" incLanes="Off_Ramp1_0" intLanes="" shape="698.57,-102.86 700.00,-100.00"/>
    <junction id="Off_Ramp2_End" type="dead_end" x="1700.00" y="-100.00" incLanes="Off_Ramp2_0" intLanes="" shape="1698.57,-102.86 1700.00,-100.00"/>
    <junction id="On_Ramp1_Start" type="dead_end" x="-100.00" y="-100.00" incLanes="" intLanes="" shape="-100.00,-100.00 -98.57,-102.86"/>
    <junction id="On_Ramp2_Start" type="dead_end" x="900.00" y="-100.00" incLanes="" intLanes="" shape="900.00,-100.00 901.43,-102.86"/>
    <junction id="Start" type="dead_end" x="-100.00" y="0.00" incLanes="" intLanes="" shape="-100.00,0.00 -100.00,-12.80"/>
    <junction id="Weaving1_End" type="priority" x="500.00" y="0.00" incLanes="Weaving_Area1_0 Weaving_Area1_1 Weaving_Area1_2 Weaving_Area1_3 Weaving_Area1_4" intLanes=":Weaving1_End_0_0 :Weaving1_End_1_0 :Weaving1_End_1_1 :Weaving1_End_1_2 :Weaving1_End_1_3" shape="527.10,0.00 527.10,-12.80 526.49,-12.91 526.48,-13.05 526.66,-13.25 527.04,-13.50 527.62,-13.81 526.19,-16.67 525.19,-16.21 524.82,-16.09 524.44,-16.03 523.97,-16.00 523.34,-16.00 523.34,0.00">
        <request index="0" response="00000" foes="00000" cont="0"/>
        <request index="1" response="00000" foes="00000" cont="0"/>
        <request index="2" response="00000" foes="00000" cont="0"/>
        <request index="3" response="00000" foes="00000" cont="0"/>
        <request index="4" response="00000" foes="00000" cont="0"/>
    </junction>
    <junction id="Weaving1_Start" type="priority" x="100.00" y="0.00" incLanes="On_Ramp1_0 Input_0 Input_1 Input_2 Input_3" intLanes=":Weaving1_Start_0_0 :Weaving1_Start_1_0 :Weaving1_Start_1_1 :Weaving1_Start_1_2 :Weaving1_Start_1_3" shape="76.66,0.00 76.66,-16.00 75.56,-16.03 75.18,-16.09 74.81,-16.21 74.38,-16.39 73.81,-16.67 72.38,-13.81 73.34,-13.25 73.52,-13.05 73.51,-12.91 73.30,-12.83 72.90,-12.80 72.90,0.00">
        <request index="0" response="00000" foes="00000" cont="0"/>
        <request index="1" response="00000" foes="00000" cont="0"/>
        <request index="2" response="00000" foes="00000" cont="0"/>
        <request index="3" response="00000" foes="00000" cont="0"/>
        <request index="4" response="00000" foes="00000" cont="0"/>
    </junction>
    <junction id="Weaving2_End" type="priority" x="1500.00" y="0.00" incLanes="Weaving_Area2_0 Weaving_Area2_1 Weaving_Area2_2 Weaving_Area2_3 Weaving_Area2_4" intLanes=":Weaving2_End_0_0 :Weaving2_End_1_0 :Weaving2_End_1_1 :Weaving2_End_1_2 :Weaving2_End_1_3" shape="1527.10,0.00 1527.10,-12.80 1526.49,-12.91 1526.48,-13.05 1526.66,-13.25 1527.04,-13.50 1527.62,-13.81 1526.19,-16.67 1525.19,-16.21 1524.82,-16.09 1524.44,-16.03 1523.97,-16.00 1523.34,-16.00 1523.34,0.00">
        <request index="0" response="00000" foes="00000" cont="0"/>
        <request index="1" response="00000" foes="00000" cont="0"/>
        <request index="2" response="00000" foes="00000" cont="0"/>
        <request index="3" response="00000" foes="00000" cont="0"/>
        <request index="4" response="00000" foes="00000" cont="0"/>
    </junction>
    <junction id="Weaving2_Start" type="priority" x="1100.00" y="0.00" incLanes="On_Ramp2_0 Between_Weaving_0 Between_Weaving_1 Between_Weaving_2 Between_Weaving_3" intLanes=":Weaving2_Start_0_0 :Weaving2_Start_1_0 :Weaving2_Start_1_1 :Weaving2_Start_1_2 :Weaving2_Start_1_3" shape="1076.66,0.00 1076.66,-16.00 1075.56,-16.03 1075.18,-16.09 1074.81,-16.21 1074.38,-16.39 1073.81,-16.67 1072.38,-13.81 1073.34,-13.25 1073.52,-13.05 1073.51,-12.91 1073.30,-12.83 1072.90,-12.80 1072.90,0.00">
        <request index="0" response="00000" foes="00000" cont="0"/>
        <request index="1" response="00000" foes="00000" cont="0"/>
        <request index="2" response="00000" foes="00000" cont="0"/>
        <request index="3" response="00000" foes="00000" cont="0"/>
        <request index="4" response="00000" foes="00000" cont="0"/>
    </junction>

    <connection from="Between_Weaving" to="Weaving_Area2" fromLane="0" toLane="1" via=":Weaving2_Start_1_0" dir="s" state="M"/>
    <connection from="Between_Weaving" to="Weaving_Area2" fromLane="1" toLane="2" via=":Weaving2_Start_1_1" dir="s" state="M"/>
    <connection from="Between_Weaving" to="Weaving_Area2" fromLane="2" toLane="3" via=":Weaving2_Start_1_2" dir="s" state="M"/>
    <connection from="Between_Weaving" to="Weaving_Area2" fromLane="3" toLane="4" via=":Weaving2_Start_1_3" dir="s" state="M"/>
    <connection from="Input" to="Weaving_Area1" fromLane="0" toLane="1" via=":Weaving1_Start_1_0" dir="s" state="M"/>
    <connection from="Input" to="Weaving_Area1" fromLane="1" toLane="2" via=":Weaving1_Start_1_1" dir="s" state="M"/>
    <connection from="Input" to="Weaving_Area1" fromLane="2" toLane="3" via=":Weaving1_Start_1_2" dir="s" state="M"/>
    <connection from="Input" to="Weaving_Area1" fromLane="3" toLane="4" via=":Weaving1_Start_1_3" dir="s" state="M"/>
    <connection from="On_Ramp1" to="Weaving_Area1" fromLane="0" toLane="0" via=":Weaving1_Start_0_0" dir="s" state="M"/>
    <connection from="On_Ramp2" to="Weaving_Area2" fromLane="0" toLane="0" via=":Weaving2_Start_0_0" dir="s" state="M"/>
    <connection from="Weaving_Area1" to="Off_Ramp1" fromLane="0" toLane="0" via=":Weaving1_End_0_0" dir="R" state="M"/>
    <connection from="Weaving_Area1" to="Between_Weaving" fromLane="1" toLane="0" via=":Weaving1_End_1_0" dir="s" state="M"/>
    <connection from="Weaving_Area1" to="Between_Weaving" fromLane="2" toLane="1" via=":Weaving1_End_1_1" dir="s" state="M"/>
    <connection from="Weaving_Area1" to="Between_Weaving" fromLane="3" toLane="2" via=":Weaving1_End_1_2" dir="s" state="M"/>
    <connection from="Weaving_Area1" to="Between_Weaving" fromLane="4" toLane="3" via=":Weaving1_End_1_3" dir="s" state="M"/>
    <connection from="Weaving_Area2" to="Off_Ramp2" fromLane="0" toLane="0" via=":Weaving2_End_0_0" dir="R" state="M"/>
    <connection from="Weaving_Area2" to="Output" fromLane="1" toLane="0" via=":Weaving2_End_1_0" dir="s" state="M"/>
    <connection from="Weaving_Area2" to="Output" fromLane="2" toLane="1" via=":Weaving2_End_1_1" dir="s" state="M"/>
    <connection from="Weaving_Area2" to="Output" fromLane="3" toLane="2" via=":Weaving2_End_1_2" dir="s" state="M"/>
    <connection from="Weaving_Area2" to="Output" fromLane="4" toLane="3" via=":Weaving2_End_1_3" dir="s" state="M"/>

    <connection from=":Weaving1_End_0" to="Off_Ramp1" fromLane="0" toLane="0" dir="R" state="M"/>
    <connection from=":Weaving1_End_1" to="Between_Weaving" fromLane="0" toLane="0" dir="s" state="M"/>
    <connection from=":Weaving1_End_1" to="Between_Weaving" fromLane="1" toLane="1" dir="s" state="M"/>
    <connection from=":Weaving1_End_1" to="Between_Weaving" fromLane="2" toLane="2" dir="s" state="M"/>
    <connection from=":Weaving1_End_1" to="Between_Weaving" fromLane="3" toLane="3" dir="s" state="M"/>
    <connection from=":Weaving1_Start_0" to="Weaving_Area1" fromLane="0" toLane="0" dir="s" state="M"/>
    <connection from=":Weaving1_Start_1" to="Weaving_Area1" fromLane="0" toLane="1" dir="s" state="M"/>
    <connection from=":Weaving1_Start_1" to="Weaving_Area1" fromLane="1" toLane="2" dir="s" state="M"/>
    <connection from=":Weaving1_Start_1" to="Weaving_Area1" fromLane="2" toLane="3" dir="s" state="M"/>
    <connection from=":Weaving1_Start_1" to="Weaving_Area1" fromLane="3" toLane="4" dir="s" state="M"/>
    <connection from=":Weaving2_End_0" to="Off_Ramp2" fromLane="0" toLane="0" dir="R" state="M"/>
    <connection from=":Weaving2_End_1" to="Output" fromLane="0" toLane="0" dir="s" state="M"/>
    <connection from=":Weaving2_End_1" to="Output" fromLane="1" toLane="1" dir="s" state="M"/>
    <connection from=":Weaving2_End_1" to="Output" fromLane="2" toLane="2" dir="s" state="M"/>
    <connection from=":Weaving2_End_1" to="Output" fromLane="3" toLane="3" dir="s" state="M"/>
    <connection from=":Weaving2_Start_0" to="Weaving_Area2" fromLane="0" toLane="0" dir="s" state="M"/>
    <connection from=":Weaving2_Start_1" to="Weaving_Area2" fromLane="0" toLane="1" dir="s" state="M"/>
    <connection from=":Weaving2_Start_1" to="Weaving_Area2" fromLane="1" toLane="2" dir="s" state="M"/>
    <connection from=":Weaving2_Start_1" to="Weaving_Area2" fromLane="2" toLane="3" dir="s" state="M"/>
    <connection from=":Weaving2_Start_1" to="Weaving_Area2" fromLane="3" toLane="4" dir="s" state="M"/>

</net>
