<?xml version="1.0" encoding="UTF-8"?>

<!-- generated on 2026-02-07 14:52:32 by Eclipse SUMO netedit Version 1.21.0
<neteditConfiguration xmlns:xsi="http://www.w3.org/2001/XMLSchema-instance" xsi:noNamespaceSchemaLocation="http://sumo.dlr.de/xsd/neteditConfiguration.xsd">

    <input>
        <sumo-net-file value="freeway_5lane_template_on_on_off_off.net.xml"/>
    </input>

    <output>
        <output-file value="freeway_5lane_template_on_on_off_off.net.xml"/>
    </output>

    <processing>
        <geometry.min-radius.fix.railways value="false"/>
        <geometry.max-grade.fix value="false"/>
        <offset.disable-normalization value="true"/>
        <lefthand value="0"/>
    </processing>

    <junctions>
        <no-turnarounds value="true"/>
        <junctions.corner-detail value="5"/>
        <junctions.limit-turn-speed value="5.50"/>
        <rectangular-lane-cut value="0"/>
    </junctions>

    <pedestrian>
        <walkingareas value="0"/>
    </pedestrian>

</neteditConfiguration>
-->

<net version="1.20" junctionCornerDetail="5" limitTurnSpeed="5.50" xmlns:xsi="http://www.w3.org/2001/XMLSchema-instance" xsi:noNamespaceSchemaLocation="http://sumo.dlr.de/xsd/net_file.xsd">

    <location netOffset="0.00,0.00" convBoundary="-500.00,-100.00,1100.00,0.00" origBoundary="-10000000000.00,-10000000000.00,10000000000.00,10000000000.00" projParameter="!"/>

    <edge id=":Off_Ramp2_Start_0" function="internal">
        <lane id=":Off_Ramp2_Start_0_0" index="0" speed="10.28" length="3.71" shape="929.74,-17.60 930.84,-17.62 931.60,-17.71 932.31,-17.96 933.30,-18.44"/>
    </edge>
    <edge id=":Off_Ramp2_Start_1" function="internal">
        <lane id=":Off_Ramp2_Start_1_0" index="0" speed="13.89" length="3.76" shape="929.74,-14.40 933.50,-14.40"/>
        <lane id=":Off_Ramp2_Start_1_1" index="1" speed="13.89" length="3.76" shape="929.74,-11.20 933.50,-11.20"/>
        <lane id=":Off_Ramp2_Start_1_2" index="2" speed="13.89" length="3.76" shape="929.74,-8.00 933.50,-8.00"/>
        <lane id=":Off_Ramp2_Start_1_3" index="3" speed="13.89" length="3.76" shape="929.74,-4.80 933.50,-4.80"/>
        <lane id=":Off_Ramp2_Start_1_4" index="4" speed="13.89" length="3.76" shape="929.74,-1.60 933.50,-1.60"/>
    </edge>
    <edge id=":Off_Ramp2_Taper_Start_0" function="internal">
        <lane id=":Off_Ramp2_Taper_Start_0_0" index="0" speed="13.89" length="8.13" shape="696.00,-14.40 698.46,-14.90 700.00,-16.00 701.54,-17.10 704.00,-17.60"/>
        <lane id=":Off_Ramp2_Taper_Start_0_1" index="1" speed="13.89" length="8.13" shape="696.00,-14.40 704.00,-14.40"/>
        <lane id=":Off_Ramp2_Taper_Start_0_2" index="2" speed="13.89" length="8.13" shape="696.00,-11.20 704.00,-11.20"/>
        <lane id=":Off_Ramp2_Taper_Start_0_3" index="3" speed="13.89" length="8.13" shape="696.00,-8.00 704.00,-8.00"/>
        <lane id=":Off_Ramp2_Taper_Start_0_4" index="4" speed="13.89" length="8.13" shape="696.00,-4.80 704.00,-4.80"/>
        <lane id=":Off_Ramp2_Taper_Start_0_5" index="5" speed="13.89" length="8.13" shape="696.00,-1.60 704.00,-1.60"/>
    </edge>
    <edge id=":On_Ramp1_End_0" function="internal">
        <lane id=":On_Ramp1_End_0_0" index="0" speed="10.28" length="3.71" shape="-333.30,-18.44 -332.31,-17.96 -331.60,-17.71 -330.84,-17.62 -329.74,-17.60"/>
    </edge>
    <edge id=":On_Ramp1_End_1" function="internal">
        <lane id=":On_Ramp1_End_1_0" index="0" speed="13.89" length="3.76" shape="-333.50,-14.40 -329.74,-14.40"/>
        <lane id=":On_Ramp1_End_1_1" index="1" speed="13.89" length="3.76" shape="-333.50,-11.20 -329.74,-11.20"/>
        <lane id=":On_Ramp1_End_1_2" index="2" speed="13.89" length="3.76" shape="-333.50,-8.00 -329.74,-8.00"/>
        <lane id=":On_Ramp1_End_1_3" index="3" speed="13.89" length="3.76" shape="-333.50,-4.80 -329.74,-4.80"/>
        <lane id=":On_Ramp1_End_1_4" index="4" speed="13.89" length="3.76" shape="-333.50,-1.60 -329.74,-1.60"/>
    </edge>
    <edge id=":On_Ramp1_Taper_End_0" function="internal">
        <lane id=":On_Ramp1_Taper_End_0_0" index="0" speed="13.89" length="8.00" shape="-104.00,-14.40 -96.00,-14.40"/>
        <lane id=":On_Ramp1_Taper_End_0_1" index="1" speed="13.89" length="8.00" shape="-104.00,-11.20 -96.00,-11.20"/>
        <lane id=":On_Ramp1_Taper_End_0_2" index="2" speed="13.89" length="8.00" shape="-104.00,-8.00 -96.00,-8.00"/>
        <lane id=":On_Ramp1_Taper_End_0_3" index="3" speed="13.89" length="8.00" shape="-104.00,-4.80 -96.00,-4.80"/>
        <lane id=":On_Ramp1_Taper_End_0_4" index="4" speed="13.89" length="8.00" shape="-104.00,-1.60 -96.00,-1.60"/>
    </edge>
    <edge id=":Weaving_End_0" function="internal">
        <lane id=":Weaving_End_0_0" index="0" speed="10.28" length="3.71" shape="529.74,-17.60 530.84,-17.62 531.60,-17.71 532.31,-17.96 533.30,-18.44"/>
    </edge>
    <edge id=":Weaving_End_1" function="internal">
        <lane id=":Weaving_End_1_0" index="0" speed="13.89" length="3.76" shape="529.74,-14.40 533.50,-14.40"/>
        <lane id=":Weaving_End_1_1" index="1" speed="13.89" length="3.76" shape="529.74,-11.20 533.50,-11.20"/>
        <lane id=":Weaving_End_1_2" index="2" speed="13.89" length="3.76" shape="529.74,-8.00 533.50,-8.00"/>
        <lane id=":Weaving_End_1_3" index="3" speed="13.89" length="3.76" shape="529.74,-4.80 533.50,-4.80"/>
        <lane id=":Weaving_End_1_4" index="4" speed="13.89" length="3.76" shape="529.74,-1.60 533.50,-1.60"/>
    </edge>
    <edge id=":Weaving_Start_0" function="internal">
        <lane id=":Weaving_Start_0_0" index="0" speed="10.28" length="3.71" shape="66.70,-18.44 67.69,-17.96 68.40,-17.71 69.16,-17.62 70.26,-17.60"/>
    </edge>
    <edge id=":Weaving_Start_1" function="internal">
        <lane id=":Weaving_Start_1_0" index="0" speed="13.89" length="3.76" shape="66.50,-14.40 70.26,-14.40"/>
        <lane id=":Weaving_Start_1_1" index="1" speed="13.89" length="3.76" shape="66.50,-11.20 70.26,-11.20"/>
        <lane id=":Weaving_Start_1_2" index="2" speed="13.89" length="3.76" shape="66.50,-8.00 70.26,-8.00"/>
        <lane id=":Weaving_Start_1_3" index="3" speed="13.89" length="3.76" shape="66.50,-4.80 70.26,-4.80"/>
        <lane id=":Weaving_Start_1_4" index="4" speed="13.89" length="3.76" shape="66.50,-1.60 70.26,-1.60"/>
    </edge>

    <edge id="After_Weaving" from="Weaving_End" to="Off_Ramp2_Taper_Start" priority="-1">
        <lane id="After_Weaving_0" index="0" speed="13.89" length="162.50" shape="533.50,-14.40 696.00,-14.40"/>
        <lane id="After_Weaving_1" index="1" speed="13.89" length="162.50" shape="533.50,-11.20 696.00,-11.20"/>
        <lane id="After_Weaving_2" index="2" speed="13.89" length="162.50" shape="533.50,-8.00 696.00,-8.00"/>
        <lane id="After_Weaving_3" index="3" speed="13.89" length="162.50" shape="533.50,-4.80 696.00,-4.80"/>
        <lane id="After_Weaving_4" index="4" speed="13.89" length="162.50" shape="533.50,-1.60 696.00,-1.60"/>
    </edge>
    <edge id="Before_Weaving" from="On_Ramp1_Taper_End" to="Weaving_Start" priority="-1">
        <lane id="Before_Weaving_0" index="0" speed="13.89" length="162.50" shape="-96.00,-14.40 66.50,-14.40"/>
        <lane id="Before_Weaving_1" index="1" speed="13.89" length="162.50" shape="-96.00,-11.20 66.50,-11.20"/>
        <lane id="Before_Weaving_2" index="2" speed="13.89" length="162.50" shape="-96.00,-8.00 66.50,-8.00"/>
        <lane id="Before_Weaving_3" index="3" speed="13.89" length="162.50" shape="-96.00,-4.80 66.50,-4.80"/>
        <lane id="Before_Weaving_4" index="4" speed="13.89" length="162.50" shape="-96.00,-1.60 66.50,-1.60"/>
    </edge>
    <edge id="Input" from="Start" to="On_Ramp1_End" priority="-1">
        <lane id="Input_0" index="0" speed="13.89" length="166.50" shape="-500.00,-14.40 -333.50,-14.40"/>
        <lane id="Input_1" index="1" speed="13.89" length="166.50" shape="-500.00,-11.20 -333.50,-11.20"/>
        <lane id="Input_2" index="2" speed="13.89" length="166.50" shape="-500.00,-8.00 -333.50,-8.00"/>
        <lane id="Input_3" index="3" speed="13.89" length="166.50" shape="-500.00,-4.80 -333.50,-4.80"/>
        <lane id="Input_4" index="4" speed="13.89" length="166.50" shape="-500.00,-1.60 -333.50,-1.60"/>
    </edge>
    <edge id="Off_Ramp1" from="Weaving_End" to="Off_Ramp1_End" priority="-1">
        <lane id="Off_Ramp1_0" index="0" speed="13.89" length="185.57" shape="533.30,-18.44 699.28,-101.43"/>
    </edge>
    <edge id="Off_Ramp2" from="Off_Ramp2_Start" to="Off_Ramp2_End" priority="-1">
        <lane id="Off_Ramp2_0" index="0" speed="13.89" length="185.57" shape="933.30,-18.44 1099.28,-101.43"/>
    </edge>
    <edge id="Off_Ramp2_Taper" from="Off_Ramp2_Taper_Start" to="Off_Ramp2_Start" priority="-1">
        <lane id="Off_Ramp2_Taper_0" index="0" speed="13.89" length="225.74" shape="704.00,-17.60 929.74,-17.60"/>
        <lane id="Off_Ramp2_Taper_1" index="1" speed="13.89" length="225.74" shape="704.00,-14.40 929.74,-14.40"/>
        <lane id="Off_Ramp2_Taper_2" index="2" speed="13.89" length="225.74" shape="704.00,-11.20 929.74,-11.20"/>
        <lane id="Off_Ramp2_Taper_3" index="3" speed="13.89" length="225.74" shape="704.00,-8.00 929.74,-8.00"/>
        <lane id="Off_Ramp2_Taper_4" index="4" speed="13.89" length="225.74" shape="704.00,-4.80 929.74,-4.80"/>
        <lane id="Off_Ramp2_Taper_5" index="5" speed="13.89" length="225.74" shape="704.00,-1.60 929.74,-1.60"/>
    </edge>
    <edge id="On_Ramp1" from="On_Ramp1_Start" to="On_Ramp1_End" priority="-1">
        <lane id="On_Ramp1_0" index="0" speed="13.89" length="185.57" shape="-499.28,-101.43 -333.30,-18.44"/>
    </edge>
    <edge id="On_Ramp1_Taper" from="On_Ramp1_End" to="On_Ramp1_Taper_End" priority="-1">
        <lane id="On_Ramp1_Taper_0" index="0" speed="13.89" length="225.74" shape="-329.74,-17.60 -104.00,-17.60"/>
        <lane id="On_Ramp1_Taper_1" index="1" speed="13.89" length="225.74" shape="-329.74,-14.40 -104.00,-14.40"/>
        <lane id="On_Ramp1_Taper_2" index="2" speed="13.89" length="225.74" shape="-329.74,-11.20 -104.00,-11.20"/>
        <lane id="On_Ramp1_Taper_3" index="3" speed="13.89" length="225.74" shape="-329.74,-8.00 -104.00,-8.00"/>
        <lane id="On_Ramp1_Taper_4" index="4" speed="13.89" length="225.74" shape="-329.74,-4.80 -104.00,-4.80"/>
        <lane id="On_Ramp1_Taper_5" index="5" speed="13.89" length="225.74" shape="-329.74,-1.60 -104.00,-1.60"/>
    </edge>
    <edge id="On_Ramp2" from="On_Ramp2_Start" to="Weaving_Start" priority="-1">
        <lane id="On_Ramp2_0" index="0" speed="13.89" length="185.57" shape="-99.28,-101.43 66.70,-18.44"/>
    </edge>
    <edge id="Output" from="Off_Ramp2_Start" to="End" priority="-1">
        <lane id="Output_0" index="0" speed="13.89" length="166.50" shape="933.50,-14.40 1100.00,-14.40"/>
        <lane id="Output_1" index="1" speed="13.89" length="166.50" shape="933.50,-11.20 1100.00,-11.20"/>
        <lane id="Output_2" index="2" speed="13.89" length="166.50" shape="933.50,-8.00 1100.00,-8.00"/>
        <lane id="Output_3" index="3" speed="13.89" length="166.50" shape="933.50,-4.80 1100.00,-4.80"/>
        <lane id="Output_4" index="4" speed="13.89" length="166.50" shape="933.50,-1.60 1100.00,-1.60"/>
    </edge>
    <edge id="Weaving_Area" from="Weaving_Start" to="Weaving_End" priority="-1">
        <lane id="Weaving_Area_0" index="0" speed="13.89" length="459.49" shape="70.26,-17.60 529.74,-17.60"/>
        <lane id="Weaving_Area_1" index="1" speed="13.89" length="459.49" shape="70.26,-14.40 529.74,-14.40"/>
        <lane id="Weaving_Area_2" index="2" speed="13.89" length="459.49" shape="70.26,-11.20 529.74,-11.20"/>
        <lane id="Weaving_Area_3" index="3" speed="13.89" length="459.49" shape="70.26,-8.00 529.74,-8.00"/>
        <lane id="Weaving_Area_4" index="4" speed="13.89" length="459.49" shape="70.26,-4.80 529.74,-4.80"/>
        <lane id="Weaving_Area_5" index="5" speed="13.89" length="459.49" shape="70.26,-1.60 529.74,-1.60"/>
    </edge>

    <junction id="End" type="dead_end" x="1100.00" y="0.00" incLanes="Output_0 Output_1 Output_2 Output_3 Output_4" intLanes="" shape="1100.00,-16.00 1100.00,0.00"/>
    <junction id="Off_Ramp1_End" type="dead_end" x="700.00" y="-100.00" incLanes="Off_Ramp1_0" intLanes="" shape="698.57,-102.86 700.00,-100.00"/>
    <junction id="Off_Ramp2_End" type="dead_end" x="1100.00" y="-100.00" incLanes="Off_Ramp2_0" intLanes="" shape="1098.57,-102.86 1100.00,-100.00"/>
    <junction id="Off_Ramp2_Start" type="priority" x="900.00" y="0.00" incLanes="Off_Ramp2_Taper_0 Off_Ramp2_Taper_1 Off_Ramp2_Taper_2 Off_Ramp2_Taper_3 Off_Ramp2_Taper_4 Off_Ramp2_Taper_5" intLanes=":Off_Ramp2_Start_0_0 :Off_Ramp2_Start_1_0 :Off_Ramp2_Start_1_1 :Off_Ramp2_Start_1_2 :Off_Ramp2_Start_1_3 :Off_Ramp2_Start_1_4" shape="933.50,0.00 933.50,-16.00 932.89,-16.11 932.88,-16.25 933.06,-16.45 933.44,-16.70 934.02,-17.01 932.59,-19.87 931.59,-19.41 931.22,-19.29 930.84,-19.23 930.37,-19.20 929.74,-19.20 929.74,0.00">
        <request index="0" response="000000" foes="000000" cont="0"/>
        <request index="1" response="000000" foes="000000" cont="0"/>
        <request index="2" response="000000" foes="000000" cont="0"/>
        <request index="3" response="000000" foes="000000" cont="0"/>
        <request index="4" response="000000" foes="000000" cont="0"/>
        <request index="5" response="000000" foes="000000" cont="0"/>
    </junction>
    <junction id="Off_Ramp2_Taper_Start" type="priority" x="700.00" y="0.00" incLanes="After_Weaving_0 After_Weaving_1 After_Weaving_2 After_Weaving_3 After_Weaving_4" intLanes=":Off_Ramp2_Taper_Start_0_0 :Off_Ramp2_Taper_Start_0_1 :Off_Ramp2_Taper_Start_0_2 :Off_Ramp2_Taper_Start_0_3 :Off_Ramp2_Taper_Start_0_4 :Off_Ramp2_Taper_Start_0_5" shape="704.00,0.00 704.00,-19.20 700.97,-18.37 699.03,-16.83 697.79,-16.24 696.00,-16.00 696.00,0.00">
        <request index="0" response="000000" foes="000000" cont="0"/>
        <request index="1" response="000000" foes="000000" cont="0"/>
        <request index="2" response="000000" foes="000000" cont="0"/>
        <request index="3" response="000000" foes="000000" cont="0"/>
        <request index="4" response="000000" foes="000000" cont="0"/>
        <request index="5" response="000000" foes="000000" cont="0"/>
    </junction>
    <junction id="On_Ramp1_End" type="priority" x="-300.00" y="0.00" incLanes="On_Ramp1_0 Input_0 Input_1 Input_2 Input_3 Input_4" intLanes=":On_Ramp1_End_0_0 :On_Ramp1_End_1_0 :On_Ramp1_End_1_1 :On_Ramp1_End_1_2 :On_Ramp1_End_1_3 :On_Ramp1_End_1_4" shape="-329.74,0.00 -329.74,-19.20 -330.84,-19.23 -331.22,-19.29 -331.59,-19.41 -332.02,-19.59 -332.59,-19.87 -334.02,-17.01 -333.06,-16.45 -332.88,-16.25 -332.89,-16.11 -333.10,-16.03 -333.50,-16.00 -333.50,0.00">
        <request index="0" response="000000" foes="000000" cont="0"/>
        <request index="1" response="000000" foes="000000" cont="0"/>
        <request index="2" response="000000" foes="000000" cont="0"/>
        <request index="3" response="000000" foes="000000" cont="0"/>
        <request index="4" response="000000" foes="000000" cont="0"/>
        <request index="5" response="000000" foes="000000" cont="0"/>
    </junction>
    <junction id="On_Ramp1_Start" type="dead_end" x="-500.00" y="-100.00" incLanes="" intLanes="" shape="-500.00,-100.00 -498.57,-102.86"/>
    <junction id="On_Ramp1_Taper_End" type="priority" x="-100.00" y="0.00" incLanes="On_Ramp1_Taper_0 On_Ramp1_Taper_1 On_Ramp1_Taper_2 On_Ramp1_Taper_3 On_Ramp1_Taper_4 On_Ramp1_Taper_5" intLanes=":On_Ramp1_Taper_End_0_0 :On_Ramp1_Taper_End_0_1 :On_Ramp1_Taper_End_0_2 :On_Ramp1_Taper_End_0_3 :On_Ramp1_Taper_End_0_4" shape="-96.00,0.00 -96.00,-16.00 -99.03,-16.83 -100.97,-18.37 -102.21,-18.96 -104.00,-19.20 -104.00,0.00">
        <request index="0" response="00000" foes="00000" cont="0"/>
        <request index="1" response="00000" foes="00000" cont="0"/>
        <request index="2" response="00000" foes="00000" cont="0"/>
        <request index="3" response="00000" foes="00000" cont="0"/>
        <request index="4" response="00000" foes="00000" cont="0"/>
    </junction>
    <junction id="On_Ramp2_Start" type="dead_end" x="-100.00" y="-100.00" incLanes="" intLanes="" shape="-100.00,-100.00 -98.57,-102.86"/>
    <junction id="Start" type="dead_end" x="-500.00" y="0.00" incLanes="" intLanes="" shape="-500.00,0.00 -500.00,-16.00"/>
    <junction id="Weaving_End" type="priority" x="500.00" y="0.00" incLanes="Weaving_Area_0 Weaving_Area_1 Weaving_Area_2 Weaving_Area_3 Weaving_Area_4 Weaving_Area_5" intLanes=":Weaving_End_0_0 :Weaving_End_1_0 :Weaving_End_1_1 :Weaving_End_1_2 :Weaving_End_1_3 :Weaving_End_1_4" shape="533.50,0.00 533.50,-16.00 532.89,-16.11 532.88,-16.25 533.06,-16.45 533.44,-16.70 534.02,-17.01 532.59,-19.87 531.59,-19.41 531.22,-19.29 530.84,-19.23 530.37,-19.20 529.74,-19.20 529.74,0.00">
        <request index="0" response="000000" foes="000000" cont="0"/>
        <request index="1" response="000000" foes="000000" cont="0"/>
        <request index="2" response="000000" foes="000000" cont="0"/>
        <request index="3" response="000000" foes="000000" cont="0"/>
        <request index="4" response="000000" foes="000000" cont="0"/>
        <request index="5" response="000000" foes="000000" cont="0"/>
    </junction>
    <junction id="Weaving_Start" type="priority" x="100.00" y="0.00" incLanes="On_Ramp2_0 Before_Weaving_0 Before_Weaving_1 Before_Weaving_2 Before_Weaving_3 Before_Weaving_4" intLanes=":Weaving_Start_0_0 :Weaving_Start_1_0 :Weaving_Start_1_1 :Weaving_Start_1_2 :Weaving_Start_1_3 :Weaving_Start_1_4" shape="70.26,0.00 70.26,-19.20 69.16,-19.23 68.78,-19.29 68.41,-19.41 67.98,-19.59 67.41,-19.87 65.98,-17.01 66.94,-16.45 67.12,-16.25 67.11,-16.11 66.90,-16.03 66.50,-16.00 66.50,0.00">
        <request index="0" response="000000" foes="000000" cont="0"/>
        <request index="1" response="000000" foes="000000" cont="0"/>
        <request index="2" response="000000" foes="000000" cont="0"/>
        <request index="3" response="000000" foes="000000" cont="0"/>
        <request index="4" response="000000" foes="000000" cont="0"/>
        <request index="5" response="000000" foes="000000" cont="0"/>
    </junction>

    <connection from="After_Weaving" to="Off_Ramp2_Taper" fromLane="0" toLane="0" via=":Off_Ramp2_Taper_Start_0_0" dir="s" state="M"/>
    <connection from="After_Weaving" to="Off_Ramp2_Taper" fromLane="0" toLane="1" via=":Off_Ramp2_Taper_Start_0_1" dir="s" state="M"/>
    <connection from="After_Weaving" to="Off_Ramp2_Taper" fromLane="1" toLane="2" via=":Off_Ramp2_Taper_Start_0_2" dir="s" state="M"/>
    <connection from="After_Weaving" to="Off_Ramp2_Taper" fromLane="2" toLane="3" via=":Off_Ramp2_Taper_Start_0_3" dir="s" state="M"/>
    <connection from="After_Weaving" to="Off_Ramp2_Taper" fromLane="3" toLane="4" via=":Off_Ramp2_Taper_Start_0_4" dir="s" state="M"/>
    <connection from="After_Weaving" to="Off_Ramp2_Taper" fromLane="4" toLane="5" via=":Off_Ramp2_Taper_Start_0_5" dir="s" state="M"/>
    <connection from="Before_Weaving" to="Weaving_Area" fromLane="0" toLane="1" via=":Weaving_Start_1_0" dir="s" state="M"/>
    <connection from="Before_Weaving" to="Weaving_Area" fromLane="1" toLane="2" via=":Weaving_Start_1_1" dir="s" state="M"/>
    <connection from="Before_Weaving" to="Weaving_Area" fromLane="2" toLane="3" via=":Weaving_Start_1_2" dir="s" state="M"/>
    <connection from="Before_Weaving" to="Weaving_Area" fromLane="3" toLane="4" via=":Weaving_Start_1_3" dir="s" state="M"/>
    <connection from="Before_Weaving" to="Weaving_Area" fromLane="4" toLane="5" via=":Weaving_Start_1_4" dir="s" state="M"/>
    <connection from="Input" to="On_Ramp1_Taper" fromLane="0" toLane="1" via=":On_Ramp1_End_1_0" dir="s" state="M"/>
    <connection from="Input" to="On_Ramp1_Taper" fromLane="1" toLane="2" via=":On_Ramp1_End_1_1" dir="s" state="M"/>
    <connection from="Input" to="On_Ramp1_Taper" fromLane="2" toLane="3" via=":On_Ramp1_End_1_2" dir="s" state="M"/>
    <connection from="Input" to="On_Ramp1_Taper" fromLane="3" toLane="4" via=":On_Ramp1_End_1_3" dir="s" state="M"/>
    <connection from="Input" to="On_Ramp1_Taper" fromLane="4" toLane="5" via=":On_Ramp1_End_1_4" dir="s" state="M"/>
    <connection from="Off_Ramp2_Taper" to="Off_Ramp2" fromLane="0" toLane="0" via=":Off_Ramp2_Start_0_0" dir="R" state="M"/>
    <connection from="Off_Ramp2_Taper" to="Output" fromLane="1" toLane="0" via=":Off_Ramp2_Start_1_0" dir="s" state="M"/>
    <connection from="Off_Ramp2_Taper" to="Output" fromLane="2" toLane="1" via=":Off_Ramp2_Start_1_1" dir="s" state="M"/>
    <connection from="Off_Ramp2_Taper" to="Output" fromLane="3" toLane="2" via=":Off_Ramp2_Start_1_2" dir="s" state="M"/>
    <connection from="Off_Ramp2_Taper" to="Output" fromLane="4" toLane="3" via=":Off_Ramp2_Start_1_3" dir="s" state="M"/>
    <connection from="Off_Ramp2_Taper" to="Output" fromLane="5" toLane="4" via=":Off_Ramp2_Start_1_4" dir="s" state="M"/>
    <connection from="On_Ramp1" to="On_Ramp1_Taper" fromLane="0" toLane="0" via=":On_Ramp1_End_0_0" dir="s" state="M"/>
    <connection from="On_Ramp1_Taper" to="Before_Weaving" fromLane="1" toLane="0" via=":On_Ramp1_Taper_End_0_0" dir="s" state="M"/>
    <connection from="On_Ramp1_Taper" to="Before_Weaving" fromLane="2" toLane="1" via=":On_Ramp1_Taper_End_0_1" dir="s" state="M"/>
    <connection from="On_Ramp1_Taper" to="Before_Weaving" fromLane="3" toLane="2" via=":On_Ramp1_Taper_End_0_2" dir="s" state="M"/>
    <connection from="On_Ramp1_Taper" to="Before_Weaving" fromLane="4" toLane="3" via=":On_Ramp1_Taper_End_0_3" dir="s" state="M"/>
    <connection from="On_Ramp1_Taper" to="Before_Weaving" fromLane="5" toLane="4" via=":On_Ramp1_Taper_End_0_4" dir="s" state="M"/>
    <connection from="On_Ramp2" to="Weaving_Area" fromLane="0" toLane="0" via=":Weaving_Start_0_0" dir="s" state="M"/>
    <connection from="Weaving_Area" to="Off_Ramp1" fromLane="0" toLane="0" via=":Weaving_End_0_0" dir="R" state="M"/>
    <connection from="Weaving_Area" to="After_Weaving" fromLane="1" toLane="0" via=":Weaving_End_1_0" dir="s" state="M"/>
    <connection from="Weaving_Area" to="After_Weaving" fromLane="2" toLane="1" via=":Weaving_End_1_1" dir="s" state="M"/>
    <connection from="Weaving_Area" to="After_Weaving" fromLane="3" toLane="2" via=":Weaving_End_1_2" dir="s" state="M"/>
    <connection from="Weaving_Area" to="After_Weaving" fromLane="4" toLane="3" via=":Weaving_End_1_3" dir="s" state="M"/>
    <connection from="Weaving_Area" to="After_Weaving" fromLane="5" toLane="4" via=":Weaving_End_1_4" dir="s" state="M"/>

    <connection from=":Off_Ramp2_Start_0" to="Off_Ramp2" fromLane="0" toLane="0" dir="R" state="M"/>
    <connection from=":Off_Ramp2_Start_1" to="Output" fromLane="0" toLane="0" dir="s" state="M"/>
    <connection from=":Off_Ramp2_Start_1" to="Output" fromLane="1" toLane="1" dir="s" state="M"/>
    <connection from=":Off_Ramp2_Start_1" to="Output" fromLane="2" toLane="2" dir="s" state="M"/>
    <connection from=":Off_Ramp2_Start_1" to="Output" fromLane="3" toLane="3" dir="s" state="M"/>
    <connection from=":Off_Ramp2_Start_1" to="Output" fromLane="4" toLane="4" dir="s" state="M"/>
    <connection from=":Off_Ramp2_Taper_Start_0" to="Off_Ramp2_Taper" fromLane="0" toLane="0" dir="s" state="M"/>
    <connection from=":Off_Ramp2_Taper_Start_0" to="Off_Ramp2_Taper" fromLane="1" toLane="1" dir="s" state="M"/>
    <connection from=":Off_Ramp2_Taper_Start_0" to="Off_Ramp2_Taper" fromLane="2" toLane="2" dir="s" state="M"/>
    <connection from=":Off_Ramp2_Taper_Start_0" to="Off_Ramp2_Taper" fromLane="3" toLane="3" dir="s" state="M"/>
    <connection from=":Off_Ramp2_Taper_Start_0" to="Off_Ramp2_Taper" fromLane="4" toLane="4" dir="s" state="M"/>
    <connection from=":Off_Ramp2_Taper_Start_0" to="Off_Ramp2_Taper" fromLane="5" toLane="5" dir="s" state="M"/>
    <connection from=":On_Ramp1_End_0" to="On_Ramp1_Taper" fromLane="0" toLane="0" dir="s" state="M"/>
    <connection from=":On_Ramp1_End_1" to="On_Ramp1_Taper" fromLane="0" toLane="1" dir="s" state="M"/>
    <connection from=":On_Ramp1_End_1" to="On_Ramp1_Taper" fromLane="1" toLane="2" dir="s" state="M"/>
    <connection from=":On_Ramp1_End_1" to="On_Ramp1_Taper" fromLane="2" toLane="3" dir="s" state="M"/>
    <connection from=":On_Ramp1_End_1" to="On_Ramp1_Taper" fromLane="3" toLane="4" dir="s" state="M"/>
    <connection from=":On_Ramp1_End_1" to="On_Ramp1_Taper" fromLane="4" toLane="5" dir="s" state="M"/>
    <connection from=":On_Ramp1_Taper_End_0" to="Before_Weaving" fromLane="0" toLane="0" dir="s" state="M"/>
    <connection from=":On_Ramp1_Taper_End_0" to="Before_Weaving" fromLane="1" toLane="1" dir="s" state="M"/>
    <connection from=":On_Ramp1_Taper_End_0" to="Before_Weaving" fromLane="2" toLane="2" dir="s" state="M"/>
    <connection from=":On_Ramp1_Taper_End_0" to="Before_Weaving" fromLane="3" toLane="3" dir="s" state="M"/>
    <connection from=":On_Ramp1_Taper_End_0" to="Before_Weaving" fromLane="4" toLane="4" dir="s" state="M"/>
    <connection from=":Weaving_End_0" to="Off_Ramp1" fromLane="0" toLane="0" dir="R" state="M"/>
    <connection from=":Weaving_End_1" to="After_Weaving" fromLane="0" toLane="0" dir="s" state="M"/>
    <connection from=":Weaving_End_1" to="After_Weaving" fromLane="1" toLane="1" dir="s" state="M"/>
    <connection from=":Weaving_End_1" to="After_Weaving" fromLane="2" toLane="2" dir="s" state="M"/>
    <connection from=":Weaving_End_1" to="After_Weaving" fromLane="3" toLane="3" dir="s" state="M"/>
    <connection from=":Weaving_End_1" to="After_Weaving" fromLane="4" toLane="4" dir="s" state="M"/>
    <connection from=":Weaving_Start_0" to="Weaving_Area" fromLane="0" toLane="0" dir="s" state="M"/>
    <connection from=":Weaving_Start_1" to="Weaving_Area" fromLane="0" toLane="1" dir="s" state="M"/>
    <connection from=":Weaving_Start_1" to="Weaving_Area" fromLane="1" toLane="2" dir="s" state="M"/>
    <connection from=":Weaving_Start_1" to="Weaving_Area" fromLane="2" toLane="3" dir="s" state="M"/>
    <connection from=":Weaving_Start_1" to="Weaving_Area" fromLane="3" toLane="4" dir="s" state="M"/>
    <connection from=":Weaving_Start_1" to="Weaving_Area" fromLane="4" toLane="5" dir="s" state="M"/>

</net>
