<?xml version="1.0" encoding="UTF-8"?>

<!-- generated on 2026-02-07 14:54:16 by Eclipse SUMO netedit Version 1.21.0
<neteditConfiguration xmlns:xsi="http://www.w3.org/2001/XMLSchema-instance" xsi:noNamespaceSchemaLocation="http://sumo.dlr.de/xsd/neteditConfiguration.xsd">

    <input>
        <sumo-net-file value="freeway_4lane_template_on_on_off_off.net.xml"/>
    </input>

    <output>
        <output-file value="freeway_4lane_template_on_on_off_off.net.xml"/>
    </output>

    <processing>
        <geometry.min-radius.fix.railways value="false"/>
        <geometry.max-grade.fix value="false"/>
        <offset.disable-normalization value="true"/>
        <lefthand value="0"/>
    </processing>

    <junctions>
        <no-turnarounds value="true"/>
        <junctions.corner-detail value="5"/>
        <junctions.limit-turn-speed value="5.50"/>
        <rectangular-lane-cut value="0"/>
    </junctions>

    <pedestrian>
        <walkingareas value="0"/>
    </pedestrian>

</neteditConfiguration>
-->

<net version="1.20" junctionCornerDetail="5" limitTurnSpeed="5.50" xmlns:xsi="http://www.w3.org/2001/XMLSchema-instance" xsi:noNamespaceSchemaLocation="http://sumo.dlr.de/xsd/net_file.xsd">

    <location netOffset="0.00,0.00" convBoundary="-500.00,-100.00,1100.00,0.00" origBoundary="-10000000000.00,-10000000000.00,10000000000.00,10000000000.00" projParameter="!"/>

    <edge id=":Off_Ramp2_Start_0" function="internal">
        <lane id=":Off_Ramp2_Start_0_0" index="0" speed="10.28" length="3.71" shape="923.34,-14.40 924.44,-14.42 925.20,-14.51 925.91,-14.76 926.90,-15.24"/>
    </edge>
    <edge id=":Off_Ramp2_Start_1" function="internal">
        <lane id=":Off_Ramp2_Start_1_0" index="0" speed="13.89" length="3.76" shape="923.34,-11.20 927.10,-11.20"/>
        <lane id=":Off_Ramp2_Start_1_1" index="1" speed="13.89" length="3.76" shape="923.34,-8.00 927.10,-8.00"/>
        <lane id=":Off_Ramp2_Start_1_2" index="2" speed="13.89" length="3.76" shape="923.34,-4.80 927.10,-4.80"/>
        <lane id=":Off_Ramp2_Start_1_3" index="3" speed="13.89" length="3.76" shape="923.34,-1.60 927.10,-1.60"/>
    </edge>
    <edge id=":Off_Ramp2_Taper_Start_0" function="internal">
        <lane id=":Off_Ramp2_Taper_Start_0_0" index="0" speed="13.89" length="8.16" shape="696.00,-11.20 698.46,-11.70 700.00,-12.80 701.54,-13.90 704.00,-14.40"/>
        <lane id=":Off_Ramp2_Taper_Start_0_1" index="1" speed="13.89" length="8.16" shape="696.00,-11.20 704.00,-11.20"/>
        <lane id=":Off_Ramp2_Taper_Start_0_2" index="2" speed="13.89" length="8.16" shape="696.00,-8.00 704.00,-8.00"/>
        <lane id=":Off_Ramp2_Taper_Start_0_3" index="3" speed="13.89" length="8.16" shape="696.00,-4.80 704.00,-4.80"/>
        <lane id=":Off_Ramp2_Taper_Start_0_4" index="4" speed="13.89" length="8.16" shape="696.00,-1.60 704.00,-1.60"/>
    </edge>
    <edge id=":On_Ramp1_End_0" function="internal">
        <lane id=":On_Ramp1_End_0_0" index="0" speed="10.28" length="3.71" shape="-326.90,-15.24 -325.91,-14.76 -325.20,-14.51 -324.44,-14.42 -323.34,-14.40"/>
    </edge>
    <edge id=":On_Ramp1_End_1" function="internal">
        <lane id=":On_Ramp1_End_1_0" index="0" speed="13.89" length="3.76" shape="-327.10,-11.20 -323.34,-11.20"/>
        <lane id=":On_Ramp1_End_1_1" index="1" speed="13.89" length="3.76" shape="-327.10,-8.00 -323.34,-8.00"/>
        <lane id=":On_Ramp1_End_1_2" index="2" speed="13.89" length="3.76" shape="-327.10,-4.80 -323.34,-4.80"/>
        <lane id=":On_Ramp1_End_1_3" index="3" speed="13.89" length="3.76" shape="-327.10,-1.60 -323.34,-1.60"/>
    </edge>
    <edge id=":On_Ramp1_Taper_End_0" function="internal">
        <lane id=":On_Ramp1_Taper_End_0_0" index="0" speed="13.89" length="8.00" shape="-104.00,-11.20 -96.00,-11.20"/>
        <lane id=":On_Ramp1_Taper_End_0_1" index="1" speed="13.89" length="8.00" shape="-104.00,-8.00 -96.00,-8.00"/>
        <lane id=":On_Ramp1_Taper_End_0_2" index="2" speed="13.89" length="8.00" shape="-104.00,-4.80 -96.00,-4.80"/>
        <lane id=":On_Ramp1_Taper_End_0_3" index="3" speed="13.89" length="8.00" shape="-104.00,-1.60 -96.00,-1.60"/>
    </edge>
    <edge id=":Weaving_End_0" function="internal">
        <lane id=":Weaving_End_0_0" index="0" speed="10.28" length="3.71" shape="523.34,-14.40 524.44,-14.42 525.20,-14.51 525.91,-14.76 526.90,-15.24"/>
    </edge>
    <edge id=":Weaving_End_1" function="internal">
        <lane id=":Weaving_End_1_0" index="0" speed="13.89" length="3.76" shape="523.34,-11.20 527.10,-11.20"/>
        <lane id=":Weaving_End_1_1" index="1" speed="13.89" length="3.76" shape="523.34,-8.00 527.10,-8.00"/>
        <lane id=":Weaving_End_1_2" index="2" speed="13.89" length="3.76" shape="523.34,-4.80 527.10,-4.80"/>
        <lane id=":Weaving_End_1_3" index="3" speed="13.89" length="3.76" shape="523.34,-1.60 527.10,-1.60"/>
    </edge>
    <edge id=":Weaving_Start_0" function="internal">
        <lane id=":Weaving_Start_0_0" index="0" speed="10.28" length="3.71" shape="73.10,-15.24 74.09,-14.76 74.80,-14.51 75.56,-14.42 76.66,-14.40"/>
    </edge>
    <edge id=":Weaving_Start_1" function="internal">
        <lane id=":Weaving_Start_1_0" index="0" speed="13.89" length="3.76" shape="72.90,-11.20 76.66,-11.20"/>
        <lane id=":Weaving_Start_1_1" index="1" speed="13.89" length="3.76" shape="72.90,-8.00 76.66,-8.00"/>
        <lane id=":Weaving_Start_1_2" index="2" speed="13.89" length="3.76" shape="72.90,-4.80 76.66,-4.80"/>
        <lane id=":Weaving_Start_1_3" index="3" speed="13.89" length="3.76" shape="72.90,-1.60 76.66,-1.60"/>
    </edge>

    <edge id="After_Weaving" from="Weaving_End" to="Off_Ramp2_Taper_Start" priority="-1">
        <lane id="After_Weaving_0" index="0" speed="13.89" length="168.90" shape="527.10,-11.20 696.00,-11.20"/>
        <lane id="After_Weaving_1" index="1" speed="13.89" length="168.90" shape="527.10,-8.00 696.00,-8.00"/>
        <lane id="After_Weaving_2" index="2" speed="13.89" length="168.90" shape="527.10,-4.80 696.00,-4.80"/>
        <lane id="After_Weaving_3" index="3" speed="13.89" length="168.90" shape="527.10,-1.60 696.00,-1.60"/>
    </edge>
    <edge id="Before_Weaving" from="On_Ramp1_Taper_End" to="Weaving_Start" priority="-1">
        <lane id="Before_Weaving_0" index="0" speed="13.89" length="168.90" shape="-96.00,-11.20 72.90,-11.20"/>
        <lane id="Before_Weaving_1" index="1" speed="13.89" length="168.90" shape="-96.00,-8.00 72.90,-8.00"/>
        <lane id="Before_Weaving_2" index="2" speed="13.89" length="168.90" shape="-96.00,-4.80 72.90,-4.80"/>
        <lane id="Before_Weaving_3" index="3" speed="13.89" length="168.90" shape="-96.00,-1.60 72.90,-1.60"/>
    </edge>
    <edge id="Input" from="Start" to="On_Ramp1_End" priority="-1">
        <lane id="Input_0" index="0" speed="13.89" length="172.90" shape="-500.00,-11.20 -327.10,-11.20"/>
        <lane id="Input_1" index="1" speed="13.89" length="172.90" shape="-500.00,-8.00 -327.10,-8.00"/>
        <lane id="Input_2" index="2" speed="13.89" length="172.90" shape="-500.00,-4.80 -327.10,-4.80"/>
        <lane id="Input_3" index="3" speed="13.89" length="172.90" shape="-500.00,-1.60 -327.10,-1.60"/>
    </edge>
    <edge id="Off_Ramp1" from="Weaving_End" to="Off_Ramp1_End" priority="-1">
        <lane id="Off_Ramp1_0" index="0" speed="13.89" length="192.73" shape="526.90,-15.24 699.28,-101.43"/>
    </edge>
    <edge id="Off_Ramp2" from="Off_Ramp2_Start" to="Off_Ramp2_End" priority="-1">
        <lane id="Off_Ramp2_0" index="0" speed="13.89" length="192.73" shape="926.90,-15.24 1099.28,-101.43"/>
    </edge>
    <edge id="Off_Ramp2_Taper" from="Off_Ramp2_Taper_Start" to="Off_Ramp2_Start" priority="-1">
        <lane id="Off_Ramp2_Taper_0" index="0" speed="13.89" length="219.34" shape="704.00,-14.40 923.34,-14.40"/>
        <lane id="Off_Ramp2_Taper_1" index="1" speed="13.89" length="219.34" shape="704.00,-11.20 923.34,-11.20"/>
        <lane id="Off_Ramp2_Taper_2" index="2" speed="13.89" length="219.34" shape="704.00,-8.00 923.34,-8.00"/>
        <lane id="Off_Ramp2_Taper_3" index="3" speed="13.89" length="219.34" shape="704.00,-4.80 923.34,-4.80"/>
        <lane id="Off_Ramp2_Taper_4" index="4" speed="13.89" length="219.34" shape="704.00,-1.60 923.34,-1.60"/>
    </edge>
    <edge id="On_Ramp1" from="On_Ramp1_Start" to="On_Ramp1_End" priority="-1">
        <lane id="On_Ramp1_0" index="0" speed="13.89" length="192.73" shape="-499.28,-101.43 -326.90,-15.24"/>
    </edge>
    <edge id="On_Ramp1_Taper" from="On_Ramp1_End" to="On_Ramp1_Taper_End" priority="-1">
        <lane id="On_Ramp1_Taper_0" index="0" speed="13.89" length="219.34" shape="-323.34,-14.40 -104.00,-14.40"/>
        <lane id="On_Ramp1_Taper_1" index="1" speed="13.89" length="219.34" shape="-323.34,-11.20 -104.00,-11.20"/>
        <lane id="On_Ramp1_Taper_2" index="2" speed="13.89" length="219.34" shape="-323.34,-8.00 -104.00,-8.00"/>
        <lane id="On_Ramp1_Taper_3" index="3" speed="13.89" length="219.34" shape="-323.34,-4.80 -104.00,-4.80"/>
        <lane id="On_Ramp1_Taper_4" index="4" speed="13.89" length="219.34" shape="-323.34,-1.60 -104.00,-1.60"/>
    </edge>
    <edge id="On_Ramp2" from="On_Ramp2_Start" to="Weaving_Start" priority="-1">
        <lane id="On_Ramp2_0" index="0" speed="13.89" length="192.73" shape="-99.28,-101.43 73.10,-15.24"/>
    </edge>
    <edge id="Output" from="Off_Ramp2_Start" to="End" priority="-1">
        <lane id="Output_0" index="0" speed="13.89" length="172.90" shape="927.10,-11.20 1100.00,-11.20"/>
        <lane id="Output_1" index="1" speed="13.89" length="172.90" shape="927.10,-8.00 1100.00,-8.00"/>
        <lane id="Output_2" index="2" speed="13.89" length="172.90" shape="927.10,-4.80 1100.00,-4.80"/>
        <lane id="Output_3" index="3" speed="13.89" length="172.90" shape="927.10,-1.60 1100.00,-1.60"/>
    </edge>
    <edge id="Weaving_Area" from="Weaving_Start" to="Weaving_End" priority="-1">
        <lane id="Weaving_Area_0" index="0" speed="13.89" length="446.69" shape="76.66,-14.40 523.34,-14.40"/>
        <lane id="Weaving_Area_1" index="1" speed="13.89" length="446.69" shape="76.66,-11.20 523.34,-11.20"/>
        <lane id="Weaving_Area_2" index="2" speed="13.89" length="446.69" shape="76.66,-8.00 523.34,-8.00"/>
        <lane id="Weaving_Area_3" index="3" speed="13.89" length="446.69" shape="76.66,-4.80 523.34,-4.80"/>
        <lane id="Weaving_Area_4" index="4" speed="13.89" length="446.69" shape="76.66,-1.60 523.34,-1.60"/>
    </edge>

    <junction id="End" type="dead_end" x="1100.00" y="0.00" incLanes="Output_0 Output_1 Output_2 Output_3" intLanes="" shape="1100.00,-12.80 1100.00,0.00"/>
    <junction id="Off_Ramp1_End" type="dead_end" x="700.00" y="-100.00" incLanes="Off_Ramp1_0" intLanes="" shape="698.57,-102.86 700.00,-100.00"/>
    <junction id="Off_Ramp2_End" type="dead_end" x="1100.00" y="-100.00" incLanes="Off_Ramp2_0" intLanes="" shape="1098.57,-102.86 1100.00,-100.00"/>
    <junction id="Off_Ramp2_Start" type="priority" x="900.00" y="0.00" incLanes="Off_Ramp2_Taper_0 Off_Ramp2_Taper_1 Off_Ramp2_Taper_2 Off_Ramp2_Taper_3 Off_Ramp2_Taper_4" intLanes=":Off_Ramp2_Start_0_0 :Off_Ramp2_Start_1_0 :Off_Ramp2_Start_1_1 :Off_Ramp2_Start_1_2 :Off_Ramp2_Start_1_3" shape="927.10,0.00 927.10,-12.80 926.49,-12.91 926.48,-13.05 926.66,-13.25 927.04,-13.50 927.62,-13.81 926.19,-16.67 925.19,-16.21 924.82,-16.09 924.44,-16.03 923.97,-16.00 923.34,-16.00 923.34,0.00">
        <request index="0" response="00000" foes="00000" cont="0"/>
        <request index="1" response="00000" foes="00000" cont="0"/>
        <request index="2" response="00000" foes="00000" cont="0"/>
        <request index="3" response="00000" foes="00000" cont="0"/>
        <request index="4" response="00000" foes="00000" cont="0"/>
    </junction>
    <junction id="Off_Ramp2_Taper_Start" type="priority" x="700.00" y="0.00" incLanes="After_Weaving_0 After_Weaving_1 After_Weaving_2 After_Weaving_3" intLanes=":Off_Ramp2_Taper_Start_0_0 :Off_Ramp2_Taper_Start_0_1 :Off_Ramp2_Taper_Start_0_2 :Off_Ramp2_Taper_Start_0_3 :Off_Ramp2_Taper_Start_0_4" shape="704.00,0.00 704.00,-16.00 700.97,-15.17 699.03,-13.63 697.79,-13.04 696.00,-12.80 696.00,0.00">
        <request index="0" response="00000" foes="00000" cont="0"/>
        <request index="1" response="00000" foes="00000" cont="0"/>
        <request index="2" response="00000" foes="00000" cont="0"/>
        <request index="3" response="00000" foes="00000" cont="0"/>
        <request index="4" response="00000" foes="00000" cont="0"/>
    </junction>
    <junction id="On_Ramp1_End" type="priority" x="-300.00" y="0.00" incLanes="On_Ramp1_0 Input_0 Input_1 Input_2 Input_3" intLanes=":On_Ramp1_End_0_0 :On_Ramp1_End_1_0 :On_Ramp1_End_1_1 :On_Ramp1_End_1_2 :On_Ramp1_End_1_3" shape="-323.34,0.00 -323.34,-16.00 -324.44,-16.03 -324.82,-16.09 -325.19,-16.21 -325.62,-16.39 -326.19,-16.67 -327.62,-13.81 -326.66,-13.25 -326.48,-13.05 -326.49,-12.91 -326.70,-12.83 -327.10,-12.80 -327.10,0.00">
        <request index="0" response="00000" foes="00000" cont="0"/>
        <request index="1" response="00000" foes="00000" cont="0"/>
        <request index="2" response="00000" foes="00000" cont="0"/>
        <request index="3" response="00000" foes="00000" cont="0"/>
        <request index="4" response="00000" foes="00000" cont="0"/>
    </junction>
    <junction id="On_Ramp1_Start" type="dead_end" x="-500.00" y="-100.00" incLanes="" intLanes="" shape="-500.00,-100.00 -498.57,-102.86"/>
    <junction id="On_Ramp1_Taper_End" type="priority" x="-100.00" y="0.00" incLanes="On_Ramp1_Taper_0 On_Ramp1_Taper_1 On_Ramp1_Taper_2 On_Ramp1_Taper_3 On_Ramp1_Taper_4" intLanes=":On_Ramp1_Taper_End_0_0 :On_Ramp1_Taper_End_0_1 :On_Ramp1_Taper_End_0_2 :On_Ramp1_Taper_End_0_3" shape="-96.00,0.00 -96.00,-12.80 -99.03,-13.63 -100.97,-15.17 -102.21,-15.76 -104.00,-16.00 -104.00,0.00">
        <request index="0" response="0000" foes="0000" cont="0"/>
        <request index="1" response="0000" foes="0000" cont="0"/>
        <request index="2" response="0000" foes="0000" cont="0"/>
        <request index="3" response="0000" foes="0000" cont="0"/>
    </junction>
    <junction id="On_Ramp2_Start" type="dead_end" x="-100.00" y="-100.00" incLanes="" intLanes="" shape="-100.00,-100.00 -98.57,-102.86"/>
    <junction id="Start" type="dead_end" x="-500.00" y="0.00" incLanes="" intLanes="" shape="-500.00,0.00 -500.00,-12.80"/>
    <junction id="Weaving_End" type="priority" x="500.00" y="0.00" incLanes="Weaving_Area_0 Weaving_Area_1 Weaving_Area_2 Weaving_Area_3 Weaving_Area_4" intLanes=":Weaving_End_0_0 :Weaving_End_1_0 :Weaving_End_1_1 :Weaving_End_1_2 :Weaving_End_1_3" shape="527.10,0.00 527.10,-12.80 526.49,-12.91 526.48,-13.05 526.66,-13.25 527.04,-13.50 527.62,-13.81 526.19,-16.67 525.19,-16.21 524.82,-16.09 524.44,-16.03 523.97,-16.00 523.34,-16.00 523.34,0.00">
        <request index="0" response="00000" foes="00000" cont="0"/>
        <request index="1" response="00000" foes="00000" cont="0"/>
        <request index="2" response="00000" foes="00000" cont="0"/>
        <request index="3" response="00000" foes="00000" cont="0"/>
        <request index="4" response="00000" foes="00000" cont="0"/>
    </junction>
    <junction id="Weaving_Start" type="priority" x="100.00" y="0.00" incLanes="On_Ramp2_0 Before_Weaving_0 Before_Weaving_1 Before_Weaving_2 Before_Weaving_3" intLanes=":Weaving_Start_0_0 :Weaving_Start_1_0 :Weaving_Start_1_1 :Weaving_Start_1_2 :Weaving_Start_1_3" shape="76.66,0.00 76.66,-16.00 75.56,-16.03 75.18,-16.09 74.81,-16.21 74.38,-16.39 73.81,-16.67 72.38,-13.81 73.34,-13.25 73.52,-13.05 73.51,-12.91 73.30,-12.83 72.90,-12.80 72.90,0.00">
        <request index="0" response="00000" foes="00000" cont="0"/>
        <request index="1" response="00000" foes="00000" cont="0"/>
        <request index="2" response="00000" foes="00000" cont="0"/>
        <request index="3" response="00000" foes="00000" cont="0"/>
        <request index="4" response="00000" foes="00000" cont="0"/>
    </junction>

    <connection from="After_Weaving" to="Off_Ramp2_Taper" fromLane="0" toLane="0" via=":Off_Ramp2_Taper_Start_0_0" dir="s" state="M"/>
    <connection from="After_Weaving" to="Off_Ramp2_Taper" fromLane="0" toLane="1" via=":Off_Ramp2_Taper_Start_0_1" dir="s" state="M"/>
    <connection from="After_Weaving" to="Off_Ramp2_Taper" fromLane="1" toLane="2" via=":Off_Ramp2_Taper_Start_0_2" dir="s" state="M"/>
    <connection from="After_Weaving" to="Off_Ramp2_Taper" fromLane="2" toLane="3" via=":Off_Ramp2_Taper_Start_0_3" dir="s" state="M"/>
    <connection from="After_Weaving" to="Off_Ramp2_Taper" fromLane="3" toLane="4" via=":Off_Ramp2_Taper_Start_0_4" dir="s" state="M"/>
    <connection from="Before_Weaving" to="Weaving_Area" fromLane="0" toLane="1" via=":Weaving_Start_1_0" dir="s" state="M"/>
    <connection from="Before_Weaving" to="Weaving_Area" fromLane="1" toLane="2" via=":Weaving_Start_1_1" dir="s" state="M"/>
    <connection from="Before_Weaving" to="Weaving_Area" fromLane="2" toLane="3" via=":Weaving_Start_1_2" dir="s" state="M"/>
    <connection from="Before_Weaving" to="Weaving_Area" fromLane="3" toLane="4" via=":Weaving_Start_1_3" dir="s" state="M"/>
    <connection from="Input" to="On_Ramp1_Taper" fromLane="0" toLane="1" via=":On_Ramp1_End_1_0" dir="s" state="M"/>
    <connection from="Input" to="On_Ramp1_Taper" fromLane="1" toLane="2" via=":On_Ramp1_End_1_1" dir="s" state="M"/>
    <connection from="Input" to="On_Ramp1_Taper" fromLane="2" toLane="3" via=":On_Ramp1_End_1_2" dir="s" state="M"/>
    <connection from="Input" to="On_Ramp1_Taper" fromLane="3" toLane="4" via=":On_Ramp1_End_1_3" dir="s" state="M"/>
    <connection from="Off_Ramp2_Taper" to="Off_Ramp2" fromLane="0" toLane="0" via=":Off_Ramp2_Start_0_0" dir="R" state="M"/>
    <connection from="Off_Ramp2_Taper" to="Output" fromLane="1" toLane="0" via=":Off_Ramp2_Start_1_0" dir="s" state="M"/>
    <connection from="Off_Ramp2_Taper" to="Output" fromLane="2" toLane="1" via=":Off_Ramp2_Start_1_1" dir="s" state="M"/>
    <connection from="Off_Ramp2_Taper" to="Output" fromLane="3" toLane="2" via=":Off_Ramp2_Start_1_2" dir="s" state="M"/>
    <connection from="Off_Ramp2_Taper" to="Output" fromLane="4" toLane="3" via=":Off_Ramp2_Start_1_3" dir="s" state="M"/>
    <connection from="On_Ramp1" to="On_Ramp1_Taper" fromLane="0" toLane="0" via=":On_Ramp1_End_0_0" dir="s" state="M"/>
    <connection from="On_Ramp1_Taper" to="Before_Weaving" fromLane="1" toLane="0" via=":On_Ramp1_Taper_End_0_0" dir="s" state="M"/>
    <connection from="On_Ramp1_Taper" to="Before_Weaving" fromLane="2" toLane="1" via=":On_Ramp1_Taper_End_0_1" dir="s" state="M"/>
    <connection from="On_Ramp1_Taper" to="Before_Weaving" fromLane="3" toLane="2" via=":On_Ramp1_Taper_End_0_2" dir="s" state="M"/>
    <connection from="On_Ramp1_Taper" to="Before_Weaving" fromLane="4" toLane="3" via=":On_Ramp1_Taper_End_0_3" dir="s" state="M"/>
    <connection from="On_Ramp2" to="Weaving_Area" fromLane="0" toLane="0" via=":Weaving_Start_0_0" dir="s" state="M"/>
    <connection from="Weaving_Area" to="Off_Ramp1" fromLane="0" toLane="0" via=":Weaving_End_0_0" dir="R" state="M"/>
    <connection from="Weaving_Area" to="After_Weaving" fromLane="1" toLane="0" via=":Weaving_End_1_0" dir="s" state="M"/>
    <connection from="Weaving_Area" to="After_Weaving" fromLane="2" toLane="1" via=":Weaving_End_1_1" dir="s" state="M"/>
    <connection from="Weaving_Area" to="After_Weaving" fromLane="3" toLane="2" via=":Weaving_End_1_2" dir="s" state="M"/>
    <connection from="Weaving_Area" to="After_Weaving" fromLane="4" toLane="3" via=":Weaving_End_1_3" dir="s" state="M"/>

    <connection from=":Off_Ramp2_Start_0" to="Off_Ramp2" fromLane="0" toLane="0" dir="R" state="M"/>
    <connection from=":Off_Ramp2_Start_1" to="Output" fromLane="0" toLane="0" dir="s" state="M"/>
    <connection from=":Off_Ramp2_Start_1" to="Output" fromLane="1" toLane="1" dir="s" state="M"/>
    <connection from=":Off_Ramp2_Start_1" to="Output" fromLane="2" toLane="2" dir="s" state="M"/>
    <connection from=":Off_Ramp2_Start_1" to="Output" fromLane="3" toLane="3" dir="s" state="M"/>
    <connection from=":Off_Ramp2_Taper_Start_0" to="Off_Ramp2_Taper" fromLane="0" toLane="0" dir="s" state="M"/>
    <connection from=":Off_Ramp2_Taper_Start_0" to="Off_Ramp2_Taper" fromLane="1" toLane="1" dir="s" state="M"/>
    <connection from=":Off_Ramp2_Taper_Start_0" to="Off_Ramp2_Taper" fromLane="2" toLane="2" dir="s" state="M"/>
    <connection from=":Off_Ramp2_Taper_Start_0" to="Off_Ramp2_Taper" fromLane="3" toLane="3" dir="s" state="M"/>
    <connection from=":Off_Ramp2_Taper_Start_0" to="Off_Ramp2_Taper" fromLane="4" toLane="4" dir="s" state="M"/>
    <connection from=":On_Ramp1_End_0" to="On_Ramp1_Taper" fromLane="0" toLane="0" dir="s" state="M"/>
    <connection from=":On_Ramp1_End_1" to="On_Ramp1_Taper" fromLane="0" toLane="1" dir="s" state="M"/>
    <connection from=":On_Ramp1_End_1" to="On_Ramp1_Taper" fromLane="1" toLane="2" dir="s" state="M"/>
    <connection from=":On_Ramp1_End_1" to="On_Ramp1_Taper" fromLane="2" toLane="3" dir="s" state="M"/>
    <connection from=":On_Ramp1_End_1" to="On_Ramp1_Taper" fromLane="3" toLane="4" dir="s" state="M"/>
    <connection from=":On_Ramp1_Taper_End_0" to="Before_Weaving" fromLane="0" toLane="0" dir="s" state="M"/>
    <connection from=":On_Ramp1_Taper_End_0" to="Before_Weaving" fromLane="1" toLane="1" dir="s" state="M"/>
    <connection from=":On_Ramp1_Taper_End_0" to="Before_Weaving" fromLane="2" toLane="2" dir="s" state="M"/>
    <connection from=":On_Ramp1_Taper_End_0" to="Before_Weaving" fromLane="3" toLane="3" dir="s" state="M"/>
    <connection from=":Weaving_End_0" to="Off_Ramp1" fromLane="0" toLane="0" dir="R" state="M"/>
    <connection from=":Weaving_End_1" to="After_Weaving" fromLane="0" toLane="0" dir="s" state="M"/>
    <connection from=":Weaving_End_1" to="After_Weaving" fromLane="1" toLane="1" dir="s" state="M"/>
    <connection from=":Weaving_End_1" to="After_Weaving" fromLane="2" toLane="2" dir="s" state="M"/>
    <connection from=":Weaving_End_1" to="After_Weaving" fromLane="3" toLane="3" dir="s" state="M"/>
    <connection from=":Weaving_Start_0" to="Weaving_Area" fromLane="0" toLane="0" dir="s" state="M"/>
    <connection from=":Weaving_Start_1" to="Weaving_Area" fromLane="0" toLane="1" dir="s" state="M"/>
    <connection from=":Weaving_Start_1" to="Weaving_Area" fromLane="1" toLane="2" dir="s" state="M"/>
    <connection from=":Weaving_Start_1" to="Weaving_Area" fromLane="2" toLane="3" dir="s" state="M"/>
    <connection from=":Weaving_Start_1" to="Weaving_Area" fromLane="3" toLane="4" dir="s" state="M"/>

</net>
