<?xml version="1.0" encoding="UTF-8"?>

<!-- generated on 2025-09-28 20:56:16 by Eclipse SUMO netedit Version 1.21.0
<neteditConfiguration xmlns:xsi="http://www.w3.org/2001/XMLSchema-instance" xsi:noNamespaceSchemaLocation="http://sumo.dlr.de/xsd/neteditConfiguration.xsd">

    <input>
        <sumo-net-file value="freeway_2lane_template.net.xml"/>
    </input>

    <output>
        <output-file value="freeway_2lane_template.net.xml"/>
    </output>

    <processing>
        <geometry.min-radius.fix.railways value="false"/>
        <geometry.max-grade.fix value="false"/>
        <offset.disable-normalization value="true"/>
        <lefthand value="0"/>
    </processing>

    <junctions>
        <no-turnarounds value="true"/>
        <junctions.corner-detail value="5"/>
        <junctions.limit-turn-speed value="5.50"/>
        <rectangular-lane-cut value="0"/>
    </junctions>

    <pedestrian>
        <walkingareas value="0"/>
    </pedestrian>

</neteditConfiguration>
-->

<net version="1.20" junctionCornerDetail="5" limitTurnSpeed="5.50" xmlns:xsi="http://www.w3.org/2001/XMLSchema-instance" xsi:noNamespaceSchemaLocation="http://sumo.dlr.de/xsd/net_file.xsd">

    <location netOffset="0.00,0.00" convBoundary="-100.00,-100.00,700.00,0.00" origBoundary="-10000000000.00,-10000000000.00,10000000000.00,10000000000.00" projParameter="!"/>

    <edge id=":Weaving_End_0" function="internal">
        <lane id=":Weaving_End_0_0" index="0" speed="10.28" length="3.71" shape="510.54,-8.00 511.64,-8.02 512.40,-8.11 513.11,-8.36 514.10,-8.84"/>
    </edge>
    <edge id=":Weaving_End_1" function="internal">
        <lane id=":Weaving_End_1_0" index="0" speed="13.89" length="3.76" shape="510.54,-4.80 514.30,-4.80"/>
        <lane id=":Weaving_End_1_1" index="1" speed="13.89" length="3.76" shape="510.54,-1.60 514.30,-1.60"/>
    </edge>
    <edge id=":Weaving_Start_0" function="internal">
        <lane id=":Weaving_Start_0_0" index="0" speed="10.28" length="3.71" shape="85.90,-8.84 86.89,-8.36 87.60,-8.11 88.36,-8.02 89.46,-8.00"/>
    </edge>
    <edge id=":Weaving_Start_1" function="internal">
        <lane id=":Weaving_Start_1_0" index="0" speed="13.89" length="3.76" shape="85.70,-4.80 89.46,-4.80"/>
        <lane id=":Weaving_Start_1_1" index="1" speed="13.89" length="3.76" shape="85.70,-1.60 89.46,-1.60"/>
    </edge>

    <edge id="Input" from="Start" to="Weaving_Start" priority="-1">
        <lane id="Input_0" index="0" speed="13.89" length="185.70" shape="-100.00,-4.80 85.70,-4.80"/>
        <lane id="Input_1" index="1" speed="13.89" length="185.70" shape="-100.00,-1.60 85.70,-1.60"/>
    </edge>
    <edge id="Off_Ramp" from="Weaving_End" to="Off_Ramp_End" priority="-1">
        <lane id="Off_Ramp_0" index="0" speed="13.89" length="207.04" shape="514.10,-8.84 699.28,-101.43"/>
    </edge>
    <edge id="On_Ramp" from="On_Ramp_Start" to="Weaving_Start" priority="-1">
        <lane id="On_Ramp_0" index="0" speed="13.89" length="207.04" shape="-99.28,-101.43 85.90,-8.84"/>
    </edge>
    <edge id="Output" from="Weaving_End" to="End" priority="-1">
        <lane id="Output_0" index="0" speed="13.89" length="185.70" shape="514.30,-4.80 700.00,-4.80"/>
        <lane id="Output_1" index="1" speed="13.89" length="185.70" shape="514.30,-1.60 700.00,-1.60"/>
    </edge>
    <edge id="Weaving_Area" from="Weaving_Start" to="Weaving_End" priority="-1">
        <lane id="Weaving_Area_0" index="0" speed="13.89" length="421.09" shape="89.46,-8.00 510.54,-8.00"/>
        <lane id="Weaving_Area_1" index="1" speed="13.89" length="421.09" shape="89.46,-4.80 510.54,-4.80"/>
        <lane id="Weaving_Area_2" index="2" speed="13.89" length="421.09" shape="89.46,-1.60 510.54,-1.60"/>
    </edge>

    <junction id="End" type="dead_end" x="700.00" y="0.00" incLanes="Output_0 Output_1" intLanes="" shape="700.00,-6.40 700.00,0.00"/>
    <junction id="Off_Ramp_End" type="dead_end" x="700.00" y="-100.00" incLanes="Off_Ramp_0" intLanes="" shape="698.57,-102.86 700.00,-100.00"/>
    <junction id="On_Ramp_Start" type="dead_end" x="-100.00" y="-100.00" incLanes="" intLanes="" shape="-100.00,-100.00 -98.57,-102.86"/>
    <junction id="Start" type="dead_end" x="-100.00" y="0.00" incLanes="" intLanes="" shape="-100.00,0.00 -100.00,-6.40"/>
    <junction id="Weaving_End" type="priority" x="500.00" y="0.00" incLanes="Weaving_Area_0 Weaving_Area_1 Weaving_Area_2" intLanes=":Weaving_End_0_0 :Weaving_End_1_0 :Weaving_End_1_1" shape="514.30,0.00 514.30,-6.40 513.69,-6.51 513.68,-6.65 513.86,-6.85 514.24,-7.10 514.82,-7.41 513.39,-10.27 512.39,-9.81 512.02,-9.69 511.64,-9.63 511.17,-9.60 510.54,-9.60 510.54,0.00">
        <request index="0" response="000" foes="000" cont="0"/>
        <request index="1" response="000" foes="000" cont="0"/>
        <request index="2" response="000" foes="000" cont="0"/>
    </junction>
    <junction id="Weaving_Start" type="priority" x="100.00" y="0.00" incLanes="On_Ramp_0 Input_0 Input_1" intLanes=":Weaving_Start_0_0 :Weaving_Start_1_0 :Weaving_Start_1_1" shape="89.46,0.00 89.46,-9.60 88.36,-9.63 87.98,-9.69 87.61,-9.81 87.18,-9.99 86.61,-10.27 85.18,-7.41 86.14,-6.85 86.32,-6.65 86.31,-6.51 86.10,-6.43 85.70,-6.40 85.70,0.00">
        <request index="0" response="000" foes="000" cont="0"/>
        <request index="1" response="000" foes="000" cont="0"/>
        <request index="2" response="000" foes="000" cont="0"/>
    </junction>

    <connection from="Input" to="Weaving_Area" fromLane="0" toLane="1" via=":Weaving_Start_1_0" dir="s" state="M"/>
    <connection from="Input" to="Weaving_Area" fromLane="1" toLane="2" via=":Weaving_Start_1_1" dir="s" state="M"/>
    <connection from="On_Ramp" to="Weaving_Area" fromLane="0" toLane="0" via=":Weaving_Start_0_0" dir="s" state="M"/>
    <connection from="Weaving_Area" to="Off_Ramp" fromLane="0" toLane="0" via=":Weaving_End_0_0" dir="R" state="M"/>
    <connection from="Weaving_Area" to="Output" fromLane="1" toLane="0" via=":Weaving_End_1_0" dir="s" state="M"/>
    <connection from="Weaving_Area" to="Output" fromLane="2" toLane="1" via=":Weaving_End_1_1" dir="s" state="M"/>

    <connection from=":Weaving_End_0" to="Off_Ramp" fromLane="0" toLane="0" dir="R" state="M"/>
    <connection from=":Weaving_End_1" to="Output" fromLane="0" toLane="0" dir="s" state="M"/>
    <connection from=":Weaving_End_1" to="Output" fromLane="1" toLane="1" dir="s" state="M"/>
    <connection from=":Weaving_Start_0" to="Weaving_Area" fromLane="0" toLane="0" dir="s" state="M"/>
    <connection from=":Weaving_Start_1" to="Weaving_Area" fromLane="0" toLane="1" dir="s" state="M"/>
    <connection from=":Weaving_Start_1" to="Weaving_Area" fromLane="1" toLane="2" dir="s" state="M"/>

</net>
