<?xml version="1.0" encoding="UTF-8"?>

<!-- generated on 2025-12-04 22:56:22 by Eclipse SUMO netedit Version 1.21.0
<neteditConfiguration xmlns:xsi="http://www.w3.org/2001/XMLSchema-instance" xsi:noNamespaceSchemaLocation="http://sumo.dlr.de/xsd/neteditConfiguration.xsd">

    <input>
        <sumo-net-file value="multi_intersections_EW2_NS3_template.net.xml"/>
    </input>

    <output>
        <output-file value="multi_intersections_EW2_NS3_template.net.xml"/>
    </output>

    <processing>
        <geometry.min-radius.fix.railways value="false"/>
        <geometry.max-grade.fix value="false"/>
        <offset.disable-normalization value="true"/>
        <lefthand value="0"/>
    </processing>

    <junctions>
        <no-turnarounds value="true"/>
        <junctions.corner-detail value="5"/>
        <junctions.limit-turn-speed value="5.50"/>
        <rectangular-lane-cut value="0"/>
    </junctions>

    <pedestrian>
        <walkingareas value="0"/>
    </pedestrian>

</neteditConfiguration>
-->

<net version="1.20" junctionCornerDetail="5" limitTurnSpeed="5.50" xmlns:xsi="http://www.w3.org/2001/XMLSchema-instance" xsi:noNamespaceSchemaLocation="http://sumo.dlr.de/xsd/net_file.xsd">

    <location netOffset="0.00,0.00" convBoundary="0.00,-100.00,1000.00,100.00" origBoundary="-10000000000.00,-10000000000.00,10000000000.00,10000000000.00" projParameter="!"/>

    <edge id=":Intersection1_0" function="internal">
        <lane id=":Intersection1_0_0" index="0" speed="6.51" length="9.03" shape="92.00,10.40 91.65,7.95 90.60,6.20 88.85,5.15 86.40,4.80"/>
    </edge>
    <edge id=":Intersection1_1" function="internal">
        <lane id=":Intersection1_1_0" index="0" speed="13.89" length="20.80" shape="92.00,10.40 92.00,-10.40"/>
        <lane id=":Intersection1_1_1" index="1" speed="13.89" length="20.80" shape="95.20,10.40 95.20,-10.40"/>
        <lane id=":Intersection1_1_2" index="2" speed="13.89" length="20.80" shape="98.40,10.40 98.40,-10.40"/>
    </edge>
    <edge id=":Intersection1_4" function="internal">
        <lane id=":Intersection1_4_0" index="0" speed="9.84" length="4.01" shape="98.40,10.40 99.11,6.45"/>
    </edge>
    <edge id=":Intersection1_5" function="internal">
        <lane id=":Intersection1_5_0" index="0" speed="3.65" length="1.44" shape="98.40,10.40 99.20,9.20"/>
    </edge>
    <edge id=":Intersection1_22" function="internal">
        <lane id=":Intersection1_22_0" index="0" speed="9.84" length="17.98" shape="99.11,6.45 99.35,5.15 102.20,1.40 106.95,-0.85 113.60,-1.60"/>
    </edge>
    <edge id=":Intersection1_23" function="internal">
        <lane id=":Intersection1_23_0" index="0" speed="3.65" length="3.23" shape="99.20,9.20 100.00,8.80 100.80,9.20 101.60,10.40"/>
    </edge>
    <edge id=":Intersection1_6" function="internal">
        <lane id=":Intersection1_6_0" index="0" speed="6.51" length="9.03" shape="113.60,4.80 111.15,5.15 109.40,6.20 108.35,7.95 108.00,10.40"/>
    </edge>
    <edge id=":Intersection1_7" function="internal">
        <lane id=":Intersection1_7_0" index="0" speed="13.89" length="27.20" shape="113.60,4.80 86.40,4.80"/>
        <lane id=":Intersection1_7_1" index="1" speed="13.89" length="27.20" shape="113.60,1.60 86.40,1.60"/>
    </edge>
    <edge id=":Intersection1_9" function="internal">
        <lane id=":Intersection1_9_0" index="0" speed="9.84" length="6.30" shape="113.60,1.60 107.34,0.89"/>
    </edge>
    <edge id=":Intersection1_10" function="internal">
        <lane id=":Intersection1_10_0" index="0" speed="3.65" length="1.44" shape="113.60,1.60 112.40,0.80"/>
    </edge>
    <edge id=":Intersection1_24" function="internal">
        <lane id=":Intersection1_24_0" index="0" speed="9.84" length="15.70" shape="107.34,0.89 106.95,0.85 102.20,-1.40 99.35,-5.15 98.40,-10.40"/>
    </edge>
    <edge id=":Intersection1_25" function="internal">
        <lane id=":Intersection1_25_0" index="0" speed="3.65" length="3.23" shape="112.40,0.80 112.00,0.00 112.40,-0.80 113.60,-1.60"/>
    </edge>
    <edge id=":Intersection1_11" function="internal">
        <lane id=":Intersection1_11_0" index="0" speed="6.51" length="9.03" shape="108.00,-10.40 108.35,-7.95 109.40,-6.20 111.15,-5.15 113.60,-4.80"/>
    </edge>
    <edge id=":Intersection1_12" function="internal">
        <lane id=":Intersection1_12_0" index="0" speed="13.89" length="20.80" shape="108.00,-10.40 108.00,10.40"/>
        <lane id=":Intersection1_12_1" index="1" speed="13.89" length="20.80" shape="104.80,-10.40 104.80,10.40"/>
        <lane id=":Intersection1_12_2" index="2" speed="13.89" length="20.80" shape="101.60,-10.40 101.60,10.40"/>
    </edge>
    <edge id=":Intersection1_15" function="internal">
        <lane id=":Intersection1_15_0" index="0" speed="9.84" length="4.01" shape="101.60,-10.40 100.89,-6.45"/>
    </edge>
    <edge id=":Intersection1_16" function="internal">
        <lane id=":Intersection1_16_0" index="0" speed="3.65" length="1.44" shape="101.60,-10.40 100.80,-9.20"/>
    </edge>
    <edge id=":Intersection1_26" function="internal">
        <lane id=":Intersection1_26_0" index="0" speed="9.84" length="17.98" shape="100.89,-6.45 100.65,-5.15 97.80,-1.40 93.05,0.85 86.40,1.60"/>
    </edge>
    <edge id=":Intersection1_27" function="internal">
        <lane id=":Intersection1_27_0" index="0" speed="3.65" length="3.23" shape="100.80,-9.20 100.00,-8.80 99.20,-9.20 98.40,-10.40"/>
    </edge>
    <edge id=":Intersection1_17" function="internal">
        <lane id=":Intersection1_17_0" index="0" speed="6.51" length="9.03" shape="86.40,-4.80 88.85,-5.15 90.60,-6.20 91.65,-7.95 92.00,-10.40"/>
    </edge>
    <edge id=":Intersection1_18" function="internal">
        <lane id=":Intersection1_18_0" index="0" speed="13.89" length="27.20" shape="86.40,-4.80 113.60,-4.80"/>
        <lane id=":Intersection1_18_1" index="1" speed="13.89" length="27.20" shape="86.40,-1.60 113.60,-1.60"/>
    </edge>
    <edge id=":Intersection1_20" function="internal">
        <lane id=":Intersection1_20_0" index="0" speed="9.84" length="6.30" shape="86.40,-1.60 92.66,-0.89"/>
    </edge>
    <edge id=":Intersection1_21" function="internal">
        <lane id=":Intersection1_21_0" index="0" speed="3.65" length="1.44" shape="86.40,-1.60 87.60,-0.80"/>
    </edge>
    <edge id=":Intersection1_28" function="internal">
        <lane id=":Intersection1_28_0" index="0" speed="9.84" length="15.70" shape="92.66,-0.89 93.05,-0.85 97.80,1.40 100.65,5.15 101.60,10.40"/>
    </edge>
    <edge id=":Intersection1_29" function="internal">
        <lane id=":Intersection1_29_0" index="0" speed="3.65" length="3.23" shape="87.60,-0.80 88.00,0.00 87.60,0.80 86.40,1.60"/>
    </edge>
    <edge id=":Intersection2_0" function="internal">
        <lane id=":Intersection2_0_0" index="0" speed="6.51" length="9.03" shape="292.00,10.40 291.65,7.95 290.60,6.20 288.85,5.15 286.40,4.80"/>
    </edge>
    <edge id=":Intersection2_1" function="internal">
        <lane id=":Intersection2_1_0" index="0" speed="13.89" length="20.80" shape="292.00,10.40 292.00,-10.40"/>
        <lane id=":Intersection2_1_1" index="1" speed="13.89" length="20.80" shape="295.20,10.40 295.20,-10.40"/>
        <lane id=":Intersection2_1_2" index="2" speed="13.89" length="20.80" shape="298.40,10.40 298.40,-10.40"/>
    </edge>
    <edge id=":Intersection2_4" function="internal">
        <lane id=":Intersection2_4_0" index="0" speed="9.84" length="4.01" shape="298.40,10.40 299.11,6.45"/>
    </edge>
    <edge id=":Intersection2_5" function="internal">
        <lane id=":Intersection2_5_0" index="0" speed="3.65" length="1.44" shape="298.40,10.40 299.20,9.20"/>
    </edge>
    <edge id=":Intersection2_22" function="internal">
        <lane id=":Intersection2_22_0" index="0" speed="9.84" length="17.98" shape="299.11,6.45 299.35,5.15 302.20,1.40 306.95,-0.85 313.60,-1.60"/>
    </edge>
    <edge id=":Intersection2_23" function="internal">
        <lane id=":Intersection2_23_0" index="0" speed="3.65" length="3.23" shape="299.20,9.20 300.00,8.80 300.80,9.20 301.60,10.40"/>
    </edge>
    <edge id=":Intersection2_6" function="internal">
        <lane id=":Intersection2_6_0" index="0" speed="6.51" length="9.03" shape="313.60,4.80 311.15,5.15 309.40,6.20 308.35,7.95 308.00,10.40"/>
    </edge>
    <edge id=":Intersection2_7" function="internal">
        <lane id=":Intersection2_7_0" index="0" speed="13.89" length="27.20" shape="313.60,4.80 286.40,4.80"/>
        <lane id=":Intersection2_7_1" index="1" speed="13.89" length="27.20" shape="313.60,1.60 286.40,1.60"/>
    </edge>
    <edge id=":Intersection2_9" function="internal">
        <lane id=":Intersection2_9_0" index="0" speed="9.84" length="6.30" shape="313.60,1.60 307.34,0.89"/>
    </edge>
    <edge id=":Intersection2_10" function="internal">
        <lane id=":Intersection2_10_0" index="0" speed="3.65" length="1.44" shape="313.60,1.60 312.40,0.80"/>
    </edge>
    <edge id=":Intersection2_24" function="internal">
        <lane id=":Intersection2_24_0" index="0" speed="9.84" length="15.70" shape="307.34,0.89 306.95,0.85 302.20,-1.40 299.35,-5.15 298.40,-10.40"/>
    </edge>
    <edge id=":Intersection2_25" function="internal">
        <lane id=":Intersection2_25_0" index="0" speed="3.65" length="3.23" shape="312.40,0.80 312.00,0.00 312.40,-0.80 313.60,-1.60"/>
    </edge>
    <edge id=":Intersection2_11" function="internal">
        <lane id=":Intersection2_11_0" index="0" speed="6.51" length="9.03" shape="308.00,-10.40 308.35,-7.95 309.40,-6.20 311.15,-5.15 313.60,-4.80"/>
    </edge>
    <edge id=":Intersection2_12" function="internal">
        <lane id=":Intersection2_12_0" index="0" speed="13.89" length="20.80" shape="308.00,-10.40 308.00,10.40"/>
        <lane id=":Intersection2_12_1" index="1" speed="13.89" length="20.80" shape="304.80,-10.40 304.80,10.40"/>
        <lane id=":Intersection2_12_2" index="2" speed="13.89" length="20.80" shape="301.60,-10.40 301.60,10.40"/>
    </edge>
    <edge id=":Intersection2_15" function="internal">
        <lane id=":Intersection2_15_0" index="0" speed="9.84" length="4.01" shape="301.60,-10.40 300.89,-6.45"/>
    </edge>
    <edge id=":Intersection2_16" function="internal">
        <lane id=":Intersection2_16_0" index="0" speed="3.65" length="1.44" shape="301.60,-10.40 300.80,-9.20"/>
    </edge>
    <edge id=":Intersection2_26" function="internal">
        <lane id=":Intersection2_26_0" index="0" speed="9.84" length="17.98" shape="300.89,-6.45 300.65,-5.15 297.80,-1.40 293.05,0.85 286.40,1.60"/>
    </edge>
    <edge id=":Intersection2_27" function="internal">
        <lane id=":Intersection2_27_0" index="0" speed="3.65" length="3.23" shape="300.80,-9.20 300.00,-8.80 299.20,-9.20 298.40,-10.40"/>
    </edge>
    <edge id=":Intersection2_17" function="internal">
        <lane id=":Intersection2_17_0" index="0" speed="6.51" length="9.03" shape="286.40,-4.80 288.85,-5.15 290.60,-6.20 291.65,-7.95 292.00,-10.40"/>
    </edge>
    <edge id=":Intersection2_18" function="internal">
        <lane id=":Intersection2_18_0" index="0" speed="13.89" length="27.20" shape="286.40,-4.80 313.60,-4.80"/>
        <lane id=":Intersection2_18_1" index="1" speed="13.89" length="27.20" shape="286.40,-1.60 313.60,-1.60"/>
    </edge>
    <edge id=":Intersection2_20" function="internal">
        <lane id=":Intersection2_20_0" index="0" speed="9.84" length="6.30" shape="286.40,-1.60 292.66,-0.89"/>
    </edge>
    <edge id=":Intersection2_21" function="internal">
        <lane id=":Intersection2_21_0" index="0" speed="3.65" length="1.44" shape="286.40,-1.60 287.60,-0.80"/>
    </edge>
    <edge id=":Intersection2_28" function="internal">
        <lane id=":Intersection2_28_0" index="0" speed="9.84" length="15.70" shape="292.66,-0.89 293.05,-0.85 297.80,1.40 300.65,5.15 301.60,10.40"/>
    </edge>
    <edge id=":Intersection2_29" function="internal">
        <lane id=":Intersection2_29_0" index="0" speed="3.65" length="3.23" shape="287.60,-0.80 288.00,0.00 287.60,0.80 286.40,1.60"/>
    </edge>
    <edge id=":Intersection3_0" function="internal">
        <lane id=":Intersection3_0_0" index="0" speed="6.51" length="9.03" shape="792.00,10.40 791.65,7.95 790.60,6.20 788.85,5.15 786.40,4.80"/>
    </edge>
    <edge id=":Intersection3_1" function="internal">
        <lane id=":Intersection3_1_0" index="0" speed="13.89" length="20.80" shape="792.00,10.40 792.00,-10.40"/>
        <lane id=":Intersection3_1_1" index="1" speed="13.89" length="20.80" shape="795.20,10.40 795.20,-10.40"/>
        <lane id=":Intersection3_1_2" index="2" speed="13.89" length="20.80" shape="798.40,10.40 798.40,-10.40"/>
    </edge>
    <edge id=":Intersection3_4" function="internal">
        <lane id=":Intersection3_4_0" index="0" speed="9.84" length="4.01" shape="798.40,10.40 799.11,6.45"/>
    </edge>
    <edge id=":Intersection3_5" function="internal">
        <lane id=":Intersection3_5_0" index="0" speed="3.65" length="1.44" shape="798.40,10.40 799.20,9.20"/>
    </edge>
    <edge id=":Intersection3_22" function="internal">
        <lane id=":Intersection3_22_0" index="0" speed="9.84" length="17.98" shape="799.11,6.45 799.35,5.15 802.20,1.40 806.95,-0.85 813.60,-1.60"/>
    </edge>
    <edge id=":Intersection3_23" function="internal">
        <lane id=":Intersection3_23_0" index="0" speed="3.65" length="3.23" shape="799.20,9.20 800.00,8.80 800.80,9.20 801.60,10.40"/>
    </edge>
    <edge id=":Intersection3_6" function="internal">
        <lane id=":Intersection3_6_0" index="0" speed="6.51" length="9.03" shape="813.60,4.80 811.15,5.15 809.40,6.20 808.35,7.95 808.00,10.40"/>
    </edge>
    <edge id=":Intersection3_7" function="internal">
        <lane id=":Intersection3_7_0" index="0" speed="13.89" length="27.20" shape="813.60,4.80 786.40,4.80"/>
        <lane id=":Intersection3_7_1" index="1" speed="13.89" length="27.20" shape="813.60,1.60 786.40,1.60"/>
    </edge>
    <edge id=":Intersection3_9" function="internal">
        <lane id=":Intersection3_9_0" index="0" speed="9.84" length="6.30" shape="813.60,1.60 807.34,0.89"/>
    </edge>
    <edge id=":Intersection3_10" function="internal">
        <lane id=":Intersection3_10_0" index="0" speed="3.65" length="1.44" shape="813.60,1.60 812.40,0.80"/>
    </edge>
    <edge id=":Intersection3_24" function="internal">
        <lane id=":Intersection3_24_0" index="0" speed="9.84" length="15.70" shape="807.34,0.89 806.95,0.85 802.20,-1.40 799.35,-5.15 798.40,-10.40"/>
    </edge>
    <edge id=":Intersection3_25" function="internal">
        <lane id=":Intersection3_25_0" index="0" speed="3.65" length="3.23" shape="812.40,0.80 812.00,0.00 812.40,-0.80 813.60,-1.60"/>
    </edge>
    <edge id=":Intersection3_11" function="internal">
        <lane id=":Intersection3_11_0" index="0" speed="6.51" length="9.03" shape="808.00,-10.40 808.35,-7.95 809.40,-6.20 811.15,-5.15 813.60,-4.80"/>
    </edge>
    <edge id=":Intersection3_12" function="internal">
        <lane id=":Intersection3_12_0" index="0" speed="13.89" length="20.80" shape="808.00,-10.40 808.00,10.40"/>
        <lane id=":Intersection3_12_1" index="1" speed="13.89" length="20.80" shape="804.80,-10.40 804.80,10.40"/>
        <lane id=":Intersection3_12_2" index="2" speed="13.89" length="20.80" shape="801.60,-10.40 801.60,10.40"/>
    </edge>
    <edge id=":Intersection3_15" function="internal">
        <lane id=":Intersection3_15_0" index="0" speed="9.84" length="4.01" shape="801.60,-10.40 800.89,-6.45"/>
    </edge>
    <edge id=":Intersection3_16" function="internal">
        <lane id=":Intersection3_16_0" index="0" speed="3.65" length="1.44" shape="801.60,-10.40 800.80,-9.20"/>
    </edge>
    <edge id=":Intersection3_26" function="internal">
        <lane id=":Intersection3_26_0" index="0" speed="9.84" length="17.98" shape="800.89,-6.45 800.65,-5.15 797.80,-1.40 793.05,0.85 786.40,1.60"/>
    </edge>
    <edge id=":Intersection3_27" function="internal">
        <lane id=":Intersection3_27_0" index="0" speed="3.65" length="3.23" shape="800.80,-9.20 800.00,-8.80 799.20,-9.20 798.40,-10.40"/>
    </edge>
    <edge id=":Intersection3_17" function="internal">
        <lane id=":Intersection3_17_0" index="0" speed="6.51" length="9.03" shape="786.40,-4.80 788.85,-5.15 790.60,-6.20 791.65,-7.95 792.00,-10.40"/>
    </edge>
    <edge id=":Intersection3_18" function="internal">
        <lane id=":Intersection3_18_0" index="0" speed="13.89" length="27.20" shape="786.40,-4.80 813.60,-4.80"/>
        <lane id=":Intersection3_18_1" index="1" speed="13.89" length="27.20" shape="786.40,-1.60 813.60,-1.60"/>
    </edge>
    <edge id=":Intersection3_20" function="internal">
        <lane id=":Intersection3_20_0" index="0" speed="9.84" length="6.30" shape="786.40,-1.60 792.66,-0.89"/>
    </edge>
    <edge id=":Intersection3_21" function="internal">
        <lane id=":Intersection3_21_0" index="0" speed="3.65" length="1.44" shape="786.40,-1.60 787.60,-0.80"/>
    </edge>
    <edge id=":Intersection3_28" function="internal">
        <lane id=":Intersection3_28_0" index="0" speed="9.84" length="15.70" shape="792.66,-0.89 793.05,-0.85 797.80,1.40 800.65,5.15 801.60,10.40"/>
    </edge>
    <edge id=":Intersection3_29" function="internal">
        <lane id=":Intersection3_29_0" index="0" speed="3.65" length="3.23" shape="787.60,-0.80 788.00,0.00 787.60,0.80 786.40,1.60"/>
    </edge>

    <edge id="EB01" from="West_Most" to="Intersection1" priority="-1">
        <lane id="EB01_0" index="0" speed="13.89" length="86.40" shape="0.00,-4.80 86.40,-4.80"/>
        <lane id="EB01_1" index="1" speed="13.89" length="86.40" shape="0.00,-1.60 86.40,-1.60"/>
    </edge>
    <edge id="EB12" from="Intersection1" to="Intersection2" priority="-1">
        <lane id="EB12_0" index="0" speed="13.89" length="172.80" shape="113.60,-4.80 286.40,-4.80"/>
        <lane id="EB12_1" index="1" speed="13.89" length="172.80" shape="113.60,-1.60 286.40,-1.60"/>
    </edge>
    <edge id="EB23" from="Intersection2" to="Intersection3" priority="-1">
        <lane id="EB23_0" index="0" speed="13.89" length="472.80" shape="313.60,-4.80 786.40,-4.80"/>
        <lane id="EB23_1" index="1" speed="13.89" length="472.80" shape="313.60,-1.60 786.40,-1.60"/>
    </edge>
    <edge id="EB34" from="Intersection3" to="East_Most" priority="-1">
        <lane id="EB34_0" index="0" speed="13.89" length="186.40" shape="813.60,-4.80 1000.00,-4.80"/>
        <lane id="EB34_1" index="1" speed="13.89" length="186.40" shape="813.60,-1.60 1000.00,-1.60"/>
    </edge>
    <edge id="NB1_North" from="Intersection1" to="North_Most1" priority="-1">
        <lane id="NB1_North_0" index="0" speed="13.89" length="89.60" shape="108.00,10.40 108.00,100.00"/>
        <lane id="NB1_North_1" index="1" speed="13.89" length="89.60" shape="104.80,10.40 104.80,100.00"/>
        <lane id="NB1_North_2" index="2" speed="13.89" length="89.60" shape="101.60,10.40 101.60,100.00"/>
    </edge>
    <edge id="NB1_South" from="South_Most1" to="Intersection1" priority="-1">
        <lane id="NB1_South_0" index="0" speed="13.89" length="89.60" shape="108.00,-100.00 108.00,-10.40"/>
        <lane id="NB1_South_1" index="1" speed="13.89" length="89.60" shape="104.80,-100.00 104.80,-10.40"/>
        <lane id="NB1_South_2" index="2" speed="13.89" length="89.60" shape="101.60,-100.00 101.60,-10.40"/>
    </edge>
    <edge id="NB2_North" from="Intersection2" to="North_Most2" priority="-1">
        <lane id="NB2_North_0" index="0" speed="13.89" length="89.60" shape="308.00,10.40 308.00,100.00"/>
        <lane id="NB2_North_1" index="1" speed="13.89" length="89.60" shape="304.80,10.40 304.80,100.00"/>
        <lane id="NB2_North_2" index="2" speed="13.89" length="89.60" shape="301.60,10.40 301.60,100.00"/>
    </edge>
    <edge id="NB2_South" from="South_Most2" to="Intersection2" priority="-1">
        <lane id="NB2_South_0" index="0" speed="13.89" length="89.60" shape="308.00,-100.00 308.00,-10.40"/>
        <lane id="NB2_South_1" index="1" speed="13.89" length="89.60" shape="304.80,-100.00 304.80,-10.40"/>
        <lane id="NB2_South_2" index="2" speed="13.89" length="89.60" shape="301.60,-100.00 301.60,-10.40"/>
    </edge>
    <edge id="NB3_North" from="Intersection3" to="North_Most3" priority="-1">
        <lane id="NB3_North_0" index="0" speed="13.89" length="89.60" shape="808.00,10.40 808.00,100.00"/>
        <lane id="NB3_North_1" index="1" speed="13.89" length="89.60" shape="804.80,10.40 804.80,100.00"/>
        <lane id="NB3_North_2" index="2" speed="13.89" length="89.60" shape="801.60,10.40 801.60,100.00"/>
    </edge>
    <edge id="NB3_South" from="South_Most3" to="Intersection3" priority="-1">
        <lane id="NB3_South_0" index="0" speed="13.89" length="89.60" shape="808.00,-100.00 808.00,-10.40"/>
        <lane id="NB3_South_1" index="1" speed="13.89" length="89.60" shape="804.80,-100.00 804.80,-10.40"/>
        <lane id="NB3_South_2" index="2" speed="13.89" length="89.60" shape="801.60,-100.00 801.60,-10.40"/>
    </edge>
    <edge id="SB1_North" from="North_Most1" to="Intersection1" priority="-1">
        <lane id="SB1_North_0" index="0" speed="13.89" length="89.60" shape="92.00,100.00 92.00,10.40"/>
        <lane id="SB1_North_1" index="1" speed="13.89" length="89.60" shape="95.20,100.00 95.20,10.40"/>
        <lane id="SB1_North_2" index="2" speed="13.89" length="89.60" shape="98.40,100.00 98.40,10.40"/>
    </edge>
    <edge id="SB1_South" from="Intersection1" to="South_Most1" priority="-1">
        <lane id="SB1_South_0" index="0" speed="13.89" length="89.60" shape="92.00,-10.40 92.00,-100.00"/>
        <lane id="SB1_South_1" index="1" speed="13.89" length="89.60" shape="95.20,-10.40 95.20,-100.00"/>
        <lane id="SB1_South_2" index="2" speed="13.89" length="89.60" shape="98.40,-10.40 98.40,-100.00"/>
    </edge>
    <edge id="SB2_North" from="North_Most2" to="Intersection2" priority="-1">
        <lane id="SB2_North_0" index="0" speed="13.89" length="89.60" shape="292.00,100.00 292.00,10.40"/>
        <lane id="SB2_North_1" index="1" speed="13.89" length="89.60" shape="295.20,100.00 295.20,10.40"/>
        <lane id="SB2_North_2" index="2" speed="13.89" length="89.60" shape="298.40,100.00 298.40,10.40"/>
    </edge>
    <edge id="SB2_South" from="Intersection2" to="South_Most2" priority="-1">
        <lane id="SB2_South_0" index="0" speed="13.89" length="89.60" shape="292.00,-10.40 292.00,-100.00"/>
        <lane id="SB2_South_1" index="1" speed="13.89" length="89.60" shape="295.20,-10.40 295.20,-100.00"/>
        <lane id="SB2_South_2" index="2" speed="13.89" length="89.60" shape="298.40,-10.40 298.40,-100.00"/>
    </edge>
    <edge id="SB3_North" from="North_Most3" to="Intersection3" priority="-1">
        <lane id="SB3_North_0" index="0" speed="13.89" length="89.60" shape="792.00,100.00 792.00,10.40"/>
        <lane id="SB3_North_1" index="1" speed="13.89" length="89.60" shape="795.20,100.00 795.20,10.40"/>
        <lane id="SB3_North_2" index="2" speed="13.89" length="89.60" shape="798.40,100.00 798.40,10.40"/>
    </edge>
    <edge id="SB3_South" from="Intersection3" to="South_Most3" priority="-1">
        <lane id="SB3_South_0" index="0" speed="13.89" length="89.60" shape="792.00,-10.40 792.00,-100.00"/>
        <lane id="SB3_South_1" index="1" speed="13.89" length="89.60" shape="795.20,-10.40 795.20,-100.00"/>
        <lane id="SB3_South_2" index="2" speed="13.89" length="89.60" shape="798.40,-10.40 798.40,-100.00"/>
    </edge>
    <edge id="WB01" from="Intersection1" to="West_Most" priority="-1">
        <lane id="WB01_0" index="0" speed="13.89" length="86.40" shape="86.40,4.80 0.00,4.80"/>
        <lane id="WB01_1" index="1" speed="13.89" length="86.40" shape="86.40,1.60 0.00,1.60"/>
    </edge>
    <edge id="WB12" from="Intersection2" to="Intersection1" priority="-1">
        <lane id="WB12_0" index="0" speed="13.89" length="172.80" shape="286.40,4.80 113.60,4.80"/>
        <lane id="WB12_1" index="1" speed="13.89" length="172.80" shape="286.40,1.60 113.60,1.60"/>
    </edge>
    <edge id="WB23" from="Intersection3" to="Intersection2" priority="-1">
        <lane id="WB23_0" index="0" speed="13.89" length="472.80" shape="786.40,4.80 313.60,4.80"/>
        <lane id="WB23_1" index="1" speed="13.89" length="472.80" shape="786.40,1.60 313.60,1.60"/>
    </edge>
    <edge id="WB34" from="East_Most" to="Intersection3" priority="-1">
        <lane id="WB34_0" index="0" speed="13.89" length="186.40" shape="1000.00,4.80 813.60,4.80"/>
        <lane id="WB34_1" index="1" speed="13.89" length="186.40" shape="1000.00,1.60 813.60,1.60"/>
    </edge>

    <tlLogic id="Intersection1" type="static" programID="0" offset="0">
        <phase duration="42" state="GGGGggrrrrrGGGGggrrrrr"/>
        <phase duration="3"  state="yyyyyyrrrrryyyyyyrrrrr"/>
        <phase duration="42" state="rrrrrrGGGggrrrrrrGGGgg"/>
        <phase duration="3"  state="rrrrrryyyyyrrrrrryyyyy"/>
    </tlLogic>
    <tlLogic id="Intersection3" type="static" programID="0" offset="0">
        <phase duration="42" state="GGGGggrrrrrGGGGggrrrrr"/>
        <phase duration="3"  state="yyyyyyrrrrryyyyyyrrrrr"/>
        <phase duration="42" state="rrrrrrGGGggrrrrrrGGGgg"/>
        <phase duration="3"  state="rrrrrryyyyyrrrrrryyyyy"/>
    </tlLogic>
    <tlLogic id="J3" type="static" programID="0" offset="0">
        <phase duration="42" state="GGGGggrrrrrGGGGggrrrrr"/>
        <phase duration="3"  state="yyyyyyrrrrryyyyyyrrrrr"/>
        <phase duration="42" state="rrrrrrGGGggrrrrrrGGGgg"/>
        <phase duration="3"  state="rrrrrryyyyyrrrrrryyyyy"/>
    </tlLogic>

    <junction id="East_Most" type="dead_end" x="1000.00" y="0.00" incLanes="EB34_0 EB34_1" intLanes="" shape="1000.00,0.00 1000.00,-6.40 1000.00,0.00"/>
    <junction id="Intersection1" type="traffic_light" x="100.00" y="0.00" incLanes="SB1_North_0 SB1_North_1 SB1_North_2 WB12_0 WB12_1 NB1_South_0 NB1_South_1 NB1_South_2 EB01_0 EB01_1" intLanes=":Intersection1_0_0 :Intersection1_1_0 :Intersection1_1_1 :Intersection1_1_2 :Intersection1_22_0 :Intersection1_23_0 :Intersection1_6_0 :Intersection1_7_0 :Intersection1_7_1 :Intersection1_24_0 :Intersection1_25_0 :Intersection1_11_0 :Intersection1_12_0 :Intersection1_12_1 :Intersection1_12_2 :Intersection1_26_0 :Intersection1_27_0 :Intersection1_17_0 :Intersection1_18_0 :Intersection1_18_1 :Intersection1_28_0 :Intersection1_29_0" shape="90.40,10.40 109.60,10.40 110.04,8.18 110.60,7.40 111.38,6.84 112.38,6.51 113.60,6.40 113.60,-6.40 111.38,-6.84 110.60,-7.40 110.04,-8.18 109.71,-9.18 109.60,-10.40 90.40,-10.40 89.96,-8.18 89.40,-7.40 88.62,-6.84 87.62,-6.51 86.40,-6.40 86.40,6.40 88.62,6.84 89.40,7.40 89.96,8.18 90.29,9.18">
        <request index="0"  response="0000000000000000000000" foes="0000000000000110000000" cont="0"/>
        <request index="1"  response="0100000000001000000000" foes="0111111000001110000000" cont="0"/>
        <request index="2"  response="0100000000001000000000" foes="0111111000001110000000" cont="0"/>
        <request index="3"  response="0100000000001000000000" foes="0111111000001110000000" cont="0"/>
        <request index="4"  response="0100000111001000000000" foes="0111000111011110000000" cont="1"/>
        <request index="5"  response="0100000111000000000000" foes="0100000111000000000000" cont="1"/>
        <request index="6"  response="0000000111000000000000" foes="0000000111000000000000" cont="0"/>
        <request index="7"  response="0000001111000000011111" foes="1100001111000000011111" cont="0"/>
        <request index="8"  response="0000001111000000011111" foes="1100001111000000011111" cont="0"/>
        <request index="9"  response="0011001111000000011110" foes="0011011111000000011110" cont="1"/>
        <request index="10" response="0011000000000000010000" foes="0011000000000000010000" cont="1"/>
        <request index="11" response="0000000000000000000000" foes="0011000000000000000000" cont="0"/>
        <request index="12" response="0100000000001000000000" foes="0111000000001111110000" cont="0"/>
        <request index="13" response="0100000000001000000000" foes="0111000000001111110000" cont="0"/>
        <request index="14" response="0100000000001000000000" foes="0111000000001111110000" cont="0"/>
        <request index="15" response="0100000000001000001110" foes="1111000000001110001110" cont="1"/>
        <request index="16" response="0000000000001000001110" foes="0000000000001000001110" cont="1"/>
        <request index="17" response="0000000000000000001110" foes="0000000000000000001110" cont="0"/>
        <request index="18" response="0000001111100000011110" foes="0000001111111000011110" cont="0"/>
        <request index="19" response="0000001111100000011110" foes="0000001111111000011110" cont="0"/>
        <request index="20" response="0000001111000110011110" foes="0000001111000110111110" cont="1"/>
        <request index="21" response="0000001000000110000000" foes="0000001000000110000000" cont="1"/>
    </junction>
    <junction id="Intersection2" type="traffic_light" x="300.00" y="0.00" incLanes="SB2_North_0 SB2_North_1 SB2_North_2 WB23_0 WB23_1 NB2_South_0 NB2_South_1 NB2_South_2 EB12_0 EB12_1" intLanes=":Intersection2_0_0 :Intersection2_1_0 :Intersection2_1_1 :Intersection2_1_2 :Intersection2_22_0 :Intersection2_23_0 :Intersection2_6_0 :Intersection2_7_0 :Intersection2_7_1 :Intersection2_24_0 :Intersection2_25_0 :Intersection2_11_0 :Intersection2_12_0 :Intersection2_12_1 :Intersection2_12_2 :Intersection2_26_0 :Intersection2_27_0 :Intersection2_17_0 :Intersection2_18_0 :Intersection2_18_1 :Intersection2_28_0 :Intersection2_29_0" shape="290.40,10.40 309.60,10.40 310.04,8.18 310.60,7.40 311.38,6.84 312.38,6.51 313.60,6.40 313.60,-6.40 311.38,-6.84 310.60,-7.40 310.04,-8.18 309.71,-9.18 309.60,-10.40 290.40,-10.40 289.96,-8.18 289.40,-7.40 288.62,-6.84 287.62,-6.51 286.40,-6.40 286.40,6.40 288.62,6.84 289.40,7.40 289.96,8.18 290.29,9.18">