<?xml version="1.0" encoding="UTF-8"?>

<!-- generated on 2026-04-01 15:37:08 by Eclipse SUMO netedit Version 1.21.0
<neteditConfiguration xmlns:xsi="http://www.w3.org/2001/XMLSchema-instance" xsi:noNamespaceSchemaLocation="http://sumo.dlr.de/xsd/neteditConfiguration.xsd">

    <input>
        <sumo-net-file value="multi_intersections_EW2_NS2_template.net.xml"/>
    </input>

    <output>
        <output-file value="multi_intersections_EW2_NS2_template.net.xml"/>
    </output>

    <processing>
        <geometry.min-radius.fix.railways value="false"/>
        <geometry.max-grade.fix value="false"/>
        <offset.disable-normalization value="true"/>
        <lefthand value="0"/>
    </processing>

    <junctions>
        <no-turnarounds value="true"/>
        <junctions.corner-detail value="5"/>
        <junctions.limit-turn-speed value="5.50"/>
        <rectangular-lane-cut value="0"/>
    </junctions>

    <pedestrian>
        <walkingareas value="0"/>
    </pedestrian>

</neteditConfiguration>
-->

<net version="1.20" junctionCornerDetail="5" limitTurnSpeed="5.50" xmlns:xsi="http://www.w3.org/2001/XMLSchema-instance" xsi:noNamespaceSchemaLocation="http://sumo.dlr.de/xsd/net_file.xsd">

    <location netOffset="0.00,0.00" convBoundary="0.00,-100.00,1000.00,100.00" origBoundary="-10000000000.00,-10000000000.00,10000000000.00,10000000000.00" projParameter="!"/>

    <edge id=":Intersection1_0" function="internal">
        <lane id=":Intersection1_0_0" index="0" speed="6.51" length="9.03" shape="95.20,10.40 94.85,7.95 93.80,6.20 92.05,5.15 89.60,4.80"/>
    </edge>
    <edge id=":Intersection1_1" function="internal">
        <lane id=":Intersection1_1_0" index="0" speed="13.89" length="20.80" shape="95.20,10.40 95.20,-10.40"/>
        <lane id=":Intersection1_1_1" index="1" speed="13.89" length="20.80" shape="98.40,10.40 98.40,-10.40"/>
    </edge>
    <edge id=":Intersection1_3" function="internal">
        <lane id=":Intersection1_3_0" index="0" speed="9.26" length="5.01" shape="98.40,10.40 99.11,5.44"/>
    </edge>
    <edge id=":Intersection1_4" function="internal">
        <lane id=":Intersection1_4_0" index="0" speed="3.65" length="1.44" shape="98.40,10.40 99.20,9.20"/>
    </edge>
    <edge id=":Intersection1_20" function="internal">
        <lane id=":Intersection1_20_0" index="0" speed="9.26" length="14.34" shape="99.11,5.44 99.15,5.15 101.40,1.40 105.15,-0.85 110.40,-1.60"/>
    </edge>
    <edge id=":Intersection1_21" function="internal">
        <lane id=":Intersection1_21_0" index="0" speed="3.65" length="3.23" shape="99.20,9.20 100.00,8.80 100.80,9.20 101.60,10.40"/>
    </edge>
    <edge id=":Intersection1_5" function="internal">
        <lane id=":Intersection1_5_0" index="0" speed="6.51" length="9.03" shape="110.40,4.80 107.95,5.15 106.20,6.20 105.15,7.95 104.80,10.40"/>
    </edge>
    <edge id=":Intersection1_6" function="internal">
        <lane id=":Intersection1_6_0" index="0" speed="13.89" length="20.80" shape="110.40,4.80 89.60,4.80"/>
        <lane id=":Intersection1_6_1" index="1" speed="13.89" length="20.80" shape="110.40,1.60 89.60,1.60"/>
    </edge>
    <edge id=":Intersection1_8" function="internal">
        <lane id=":Intersection1_8_0" index="0" speed="9.26" length="5.01" shape="110.40,1.60 105.44,0.89"/>
    </edge>
    <edge id=":Intersection1_9" function="internal">
        <lane id=":Intersection1_9_0" index="0" speed="3.65" length="1.44" shape="110.40,1.60 109.20,0.80"/>
    </edge>
    <edge id=":Intersection1_22" function="internal">
        <lane id=":Intersection1_22_0" index="0" speed="9.26" length="14.34" shape="105.44,0.89 105.15,0.85 101.40,-1.40 99.15,-5.15 98.40,-10.40"/>
    </edge>
    <edge id=":Intersection1_23" function="internal">
        <lane id=":Intersection1_23_0" index="0" speed="3.65" length="3.23" shape="109.20,0.80 108.80,0.00 109.20,-0.80 110.40,-1.60"/>
    </edge>
    <edge id=":Intersection1_10" function="internal">
        <lane id=":Intersection1_10_0" index="0" speed="6.51" length="9.03" shape="104.80,-10.40 105.15,-7.95 106.20,-6.20 107.95,-5.15 110.40,-4.80"/>
    </edge>
    <edge id=":Intersection1_11" function="internal">
        <lane id=":Intersection1_11_0" index="0" speed="13.89" length="20.80" shape="104.80,-10.40 104.80,10.40"/>
        <lane id=":Intersection1_11_1" index="1" speed="13.89" length="20.80" shape="101.60,-10.40 101.60,10.40"/>
    </edge>
    <edge id=":Intersection1_13" function="internal">
        <lane id=":Intersection1_13_0" index="0" speed="9.26" length="5.01" shape="101.60,-10.40 100.89,-5.44"/>
    </edge>
    <edge id=":Intersection1_14" function="internal">
        <lane id=":Intersection1_14_0" index="0" speed="3.65" length="1.44" shape="101.60,-10.40 100.80,-9.20"/>
    </edge>
    <edge id=":Intersection1_24" function="internal">
        <lane id=":Intersection1_24_0" index="0" speed="9.26" length="14.34" shape="100.89,-5.44 100.85,-5.15 98.60,-1.40 94.85,0.85 89.60,1.60"/>
    </edge>
    <edge id=":Intersection1_25" function="internal">
        <lane id=":Intersection1_25_0" index="0" speed="3.65" length="3.23" shape="100.80,-9.20 100.00,-8.80 99.20,-9.20 98.40,-10.40"/>
    </edge>
    <edge id=":Intersection1_15" function="internal">
        <lane id=":Intersection1_15_0" index="0" speed="6.51" length="9.03" shape="89.60,-4.80 92.05,-5.15 93.80,-6.20 94.85,-7.95 95.20,-10.40"/>
    </edge>
    <edge id=":Intersection1_16" function="internal">
        <lane id=":Intersection1_16_0" index="0" speed="13.89" length="20.80" shape="89.60,-4.80 110.40,-4.80"/>
        <lane id=":Intersection1_16_1" index="1" speed="13.89" length="20.80" shape="89.60,-1.60 110.40,-1.60"/>
    </edge>
    <edge id=":Intersection1_18" function="internal">
        <lane id=":Intersection1_18_0" index="0" speed="9.26" length="5.01" shape="89.60,-1.60 94.56,-0.89"/>
    </edge>
    <edge id=":Intersection1_19" function="internal">
        <lane id=":Intersection1_19_0" index="0" speed="3.65" length="1.44" shape="89.60,-1.60 90.80,-0.80"/>
    </edge>
    <edge id=":Intersection1_26" function="internal">
        <lane id=":Intersection1_26_0" index="0" speed="9.26" length="14.34" shape="94.56,-0.89 94.85,-0.85 98.60,1.40 100.85,5.15 101.60,10.40"/>
    </edge>
    <edge id=":Intersection1_27" function="internal">
        <lane id=":Intersection1_27_0" index="0" speed="3.65" length="3.23" shape="90.80,-0.80 91.20,0.00 90.80,0.80 89.60,1.60"/>
    </edge>
    <edge id=":Intersection2_0" function="internal">
        <lane id=":Intersection2_0_0" index="0" speed="6.51" length="9.03" shape="295.20,10.40 294.85,7.95 293.80,6.20 292.05,5.15 289.60,4.80"/>
    </edge>
    <edge id=":Intersection2_1" function="internal">
        <lane id=":Intersection2_1_0" index="0" speed="13.89" length="20.80" shape="295.20,10.40 295.20,-10.40"/>
        <lane id=":Intersection2_1_1" index="1" speed="13.89" length="20.80" shape="298.40,10.40 298.40,-10.40"/>
    </edge>
    <edge id=":Intersection2_3" function="internal">
        <lane id=":Intersection2_3_0" index="0" speed="9.26" length="5.01" shape="298.40,10.40 299.11,5.44"/>
    </edge>
    <edge id=":Intersection2_4" function="internal">
        <lane id=":Intersection2_4_0" index="0" speed="3.65" length="1.44" shape="298.40,10.40 299.20,9.20"/>
    </edge>
    <edge id=":Intersection2_20" function="internal">
        <lane id=":Intersection2_20_0" index="0" speed="9.26" length="14.34" shape="299.11,5.44 299.15,5.15 301.40,1.40 305.15,-0.85 310.40,-1.60"/>
    </edge>
    <edge id=":Intersection2_21" function="internal">
        <lane id=":Intersection2_21_0" index="0" speed="3.65" length="3.23" shape="299.20,9.20 300.00,8.80 300.80,9.20 301.60,10.40"/>
    </edge>
    <edge id=":Intersection2_5" function="internal">
        <lane id=":Intersection2_5_0" index="0" speed="6.51" length="9.03" shape="310.40,4.80 307.95,5.15 306.20,6.20 305.15,7.95 304.80,10.40"/>
    </edge>
    <edge id=":Intersection2_6" function="internal">
        <lane id=":Intersection2_6_0" index="0" speed="13.89" length="20.80" shape="310.40,4.80 289.60,4.80"/>
        <lane id=":Intersection2_6_1" index="1" speed="13.89" length="20.80" shape="310.40,1.60 289.60,1.60"/>
    </edge>
    <edge id=":Intersection2_8" function="internal">
        <lane id=":Intersection2_8_0" index="0" speed="9.26" length="5.01" shape="310.40,1.60 305.44,0.89"/>
    </edge>
    <edge id=":Intersection2_9" function="internal">
        <lane id=":Intersection2_9_0" index="0" speed="3.65" length="1.44" shape="310.40,1.60 309.20,0.80"/>
    </edge>
    <edge id=":Intersection2_22" function="internal">
        <lane id=":Intersection2_22_0" index="0" speed="9.26" length="14.34" shape="305.44,0.89 305.15,0.85 301.40,-1.40 299.15,-5.15 298.40,-10.40"/>
    </edge>
    <edge id=":Intersection2_23" function="internal">
        <lane id=":Intersection2_23_0" index="0" speed="3.65" length="3.23" shape="309.20,0.80 308.80,0.00 309.20,-0.80 310.40,-1.60"/>
    </edge>
    <edge id=":Intersection2_10" function="internal">
        <lane id=":Intersection2_10_0" index="0" speed="6.51" length="9.03" shape="304.80,-10.40 305.15,-7.95 306.20,-6.20 307.95,-5.15 310.40,-4.80"/>
    </edge>
    <edge id=":Intersection2_11" function="internal">
        <lane id=":Intersection2_11_0" index="0" speed="13.89" length="20.80" shape="304.80,-10.40 304.80,10.40"/>
        <lane id=":Intersection2_11_1" index="1" speed="13.89" length="20.80" shape="301.60,-10.40 301.60,10.40"/>
    </edge>
    <edge id=":Intersection2_13" function="internal">
        <lane id=":Intersection2_13_0" index="0" speed="9.26" length="5.01" shape="301.60,-10.40 300.89,-5.44"/>
    </edge>
    <edge id=":Intersection2_14" function="internal">
        <lane id=":Intersection2_14_0" index="0" speed="3.65" length="1.44" shape="301.60,-10.40 300.80,-9.20"/>
    </edge>
    <edge id=":Intersection2_24" function="internal">
        <lane id=":Intersection2_24_0" index="0" speed="9.26" length="14.34" shape="300.89,-5.44 300.85,-5.15 298.60,-1.40 294.85,0.85 289.60,1.60"/>
    </edge>
    <edge id=":Intersection2_25" function="internal">
        <lane id=":Intersection2_25_0" index="0" speed="3.65" length="3.23" shape="300.80,-9.20 300.00,-8.80 299.20,-9.20 298.40,-10.40"/>
    </edge>
    <edge id=":Intersection2_15" function="internal">
        <lane id=":Intersection2_15_0" index="0" speed="6.51" length="9.03" shape="289.60,-4.80 292.05,-5.15 293.80,-6.20 294.85,-7.95 295.20,-10.40"/>
    </edge>
    <edge id=":Intersection2_16" function="internal">
        <lane id=":Intersection2_16_0" index="0" speed="13.89" length="20.80" shape="289.60,-4.80 310.40,-4.80"/>
        <lane id=":Intersection2_16_1" index="1" speed="13.89" length="20.80" shape="289.60,-1.60 310.40,-1.60"/>
    </edge>
    <edge id=":Intersection2_18" function="internal">
        <lane id=":Intersection2_18_0" index="0" speed="9.26" length="5.01" shape="289.60,-1.60 294.56,-0.89"/>
    </edge>
    <edge id=":Intersection2_19" function="internal">
        <lane id=":Intersection2_19_0" index="0" speed="3.65" length="1.44" shape="289.60,-1.60 290.80,-0.80"/>
    </edge>
    <edge id=":Intersection2_26" function="internal">
        <lane id=":Intersection2_26_0" index="0" speed="9.26" length="14.34" shape="294.56,-0.89 294.85,-0.85 298.60,1.40 300.85,5.15 301.60,10.40"/>
    </edge>
    <edge id=":Intersection2_27" function="internal">
        <lane id=":Intersection2_27_0" index="0" speed="3.65" length="3.23" shape="290.80,-0.80 291.20,0.00 290.80,0.80 289.60,1.60"/>
    </edge>
    <edge id=":Intersection3_0" function="internal">
        <lane id=":Intersection3_0_0" index="0" speed="6.51" length="9.03" shape="795.20,10.40 794.85,7.95 793.80,6.20 792.05,5.15 789.60,4.80"/>
    </edge>
    <edge id=":Intersection3_1" function="internal">
        <lane id=":Intersection3_1_0" index="0" speed="13.89" length="20.80" shape="795.20,10.40 795.20,-10.40"/>
        <lane id=":Intersection3_1_1" index="1" speed="13.89" length="20.80" shape="798.40,10.40 798.40,-10.40"/>
    </edge>
    <edge id=":Intersection3_3" function="internal">
        <lane id=":Intersection3_3_0" index="0" speed="9.26" length="5.01" shape="798.40,10.40 799.11,5.44"/>
    </edge>
    <edge id=":Intersection3_4" function="internal">
        <lane id=":Intersection3_4_0" index="0" speed="3.65" length="1.44" shape="798.40,10.40 799.20,9.20"/>
    </edge>
    <edge id=":Intersection3_20" function="internal">
        <lane id=":Intersection3_20_0" index="0" speed="9.26" length="14.34" shape="799.11,5.44 799.15,5.15 801.40,1.40 805.15,-0.85 810.40,-1.60"/>
    </edge>
    <edge id=":Intersection3_21" function="internal">
        <lane id=":Intersection3_21_0" index="0" speed="3.65" length="3.23" shape="799.20,9.20 800.00,8.80 800.80,9.20 801.60,10.40"/>
    </edge>
    <edge id=":Intersection3_5" function="internal">
        <lane id=":Intersection3_5_0" index="0" speed="6.51" length="9.03" shape="810.40,4.80 807.95,5.15 806.20,6.20 805.15,7.95 804.80,10.40"/>
    </edge>
    <edge id=":Intersection3_6" function="internal">
        <lane id=":Intersection3_6_0" index="0" speed="13.89" length="20.80" shape="810.40,4.80 789.60,4.80"/>
        <lane id=":Intersection3_6_1" index="1" speed="13.89" length="20.80" shape="810.40,1.60 789.60,1.60"/>
    </edge>
    <edge id=":Intersection3_8" function="internal">
        <lane id=":Intersection3_8_0" index="0" speed="9.26" length="5.01" shape="810.40,1.60 805.44,0.89"/>
    </edge>
    <edge id=":Intersection3_9" function="internal">
        <lane id=":Intersection3_9_0" index="0" speed="3.65" length="1.44" shape="810.40,1.60 809.20,0.80"/>
    </edge>
    <edge id=":Intersection3_22" function="internal">
        <lane id=":Intersection3_22_0" index="0" speed="9.26" length="14.34" shape="805.44,0.89 805.15,0.85 801.40,-1.40 799.15,-5.15 798.40,-10.40"/>
    </edge>
    <edge id=":Intersection3_23" function="internal">
        <lane id=":Intersection3_23_0" index="0" speed="3.65" length="3.23" shape="809.20,0.80 808.80,0.00 809.20,-0.80 810.40,-1.60"/>
    </edge>
    <edge id=":Intersection3_10" function="internal">
        <lane id=":Intersection3_10_0" index="0" speed="6.51" length="9.03" shape="804.80,-10.40 805.15,-7.95 806.20,-6.20 807.95,-5.15 810.40,-4.80"/>
    </edge>
    <edge id=":Intersection3_11" function="internal">
        <lane id=":Intersection3_11_0" index="0" speed="13.89" length="20.80" shape="804.80,-10.40 804.80,10.40"/>
        <lane id=":Intersection3_11_1" index="1" speed="13.89" length="20.80" shape="801.60,-10.40 801.60,10.40"/>
    </edge>
    <edge id=":Intersection3_13" function="internal">
        <lane id=":Intersection3_13_0" index="0" speed="9.26" length="5.01" shape="801.60,-10.40 800.89,-5.44"/>
    </edge>
    <edge id=":Intersection3_14" function="internal">
        <lane id=":Intersection3_14_0" index="0" speed="3.65" length="1.44" shape="801.60,-10.40 800.80,-9.20"/>
    </edge>
    <edge id=":Intersection3_24" function="internal">
        <lane id=":Intersection3_24_0" index="0" speed="9.26" length="14.34" shape="800.89,-5.44 800.85,-5.15 798.60,-1.40 794.85,0.85 789.60,1.60"/>
    </edge>
    <edge id=":Intersection3_25" function="internal">
        <lane id=":Intersection3_25_0" index="0" speed="3.65" length="3.23" shape="800.80,-9.20 800.00,-8.80 799.20,-9.20 798.40,-10.40"/>
    </edge>
    <edge id=":Intersection3_15" function="internal">
        <lane id=":Intersection3_15_0" index="0" speed="6.51" length="9.03" shape="789.60,-4.80 792.05,-5.15 793.80,-6.20 794.85,-7.95 795.20,-10.40"/>
    </edge>
    <edge id=":Intersection3_16" function="internal">
        <lane id=":Intersection3_16_0" index="0" speed="13.89" length="20.80" shape="789.60,-4.80 810.40,-4.80"/>
        <lane id=":Intersection3_16_1" index="1" speed="13.89" length="20.80" shape="789.60,-1.60 810.40,-1.60"/>
    </edge>
    <edge id=":Intersection3_18" function="internal">
        <lane id=":Intersection3_18_0" index="0" speed="9.26" length="5.01" shape="789.60,-1.60 794.56,-0.89"/>
    </edge>
    <edge id=":Intersection3_19" function="internal">
        <lane id=":Intersection3_19_0" index="0" speed="3.65" length="1.44" shape="789.60,-1.60 790.80,-0.80"/>
    </edge>
    <edge id=":Intersection3_26" function="internal">
        <lane id=":Intersection3_26_0" index="0" speed="9.26" length="14.34" shape="794.56,-0.89 794.85,-0.85 798.60,1.40 800.85,5.15 801.60,10.40"/>
    </edge>
    <edge id=":Intersection3_27" function="internal">
        <lane id=":Intersection3_27_0" index="0" speed="3.65" length="3.23" shape="790.80,-0.80 791.20,0.00 790.80,0.80 789.60,1.60"/>
    </edge>

    <edge id="EB01" from="West_Most" to="Intersection1" priority="-1">
        <lane id="EB01_0" index="0" speed="13.89" length="89.60" shape="0.00,-4.80 89.60,-4.80"/>
        <lane id="EB01_1" index="1" speed="13.89" length="89.60" shape="0.00,-1.60 89.60,-1.60"/>
    </edge>
    <edge id="EB12" from="Intersection1" to="Intersection2" priority="-1">
        <lane id="EB12_0" index="0" speed="13.89" length="179.20" shape="110.40,-4.80 289.60,-4.80"/>
        <lane id="EB12_1" index="1" speed="13.89" length="179.20" shape="110.40,-1.60 289.60,-1.60"/>
    </edge>
    <edge id="EB23" from="Intersection2" to="Intersection3" priority="-1">
        <lane id="EB23_0" index="0" speed="13.89" length="479.20" shape="310.40,-4.80 789.60,-4.80"/>
        <lane id="EB23_1" index="1" speed="13.89" length="479.20" shape="310.40,-1.60 789.60,-1.60"/>
    </edge>
    <edge id="EB34" from="Intersection3" to="East_Most" priority="-1">
        <lane id="EB34_0" index="0" speed="13.89" length="189.60" shape="810.40,-4.80 1000.00,-4.80"/>
        <lane id="EB34_1" index="1" speed="13.89" length="189.60" shape="810.40,-1.60 1000.00,-1.60"/>
    </edge>
    <edge id="NB1_North" from="Intersection1" to="North_Most1" priority="-1">
        <lane id="NB1_North_0" index="0" speed="13.89" length="89.60" shape="104.80,10.40 104.80,100.00"/>
        <lane id="NB1_North_1" index="1" speed="13.89" length="89.60" shape="101.60,10.40 101.60,100.00"/>
    </edge>
    <edge id="NB1_South" from="South_Most1" to="Intersection1" priority="-1">
        <lane id="NB1_South_0" index="0" speed="13.89" length="89.60" shape="104.80,-100.00 104.80,-10.40"/>
        <lane id="NB1_South_1" index="1" speed="13.89" length="89.60" shape="101.60,-100.00 101.60,-10.40"/>
    </edge>
    <edge id="NB2_North" from="Intersection2" to="North_Most2" priority="-1">
        <lane id="NB2_North_0" index="0" speed="13.89" length="89.60" shape="304.80,10.40 304.80,100.00"/>
        <lane id="NB2_North_1" index="1" speed="13.89" length="89.60" shape="301.60,10.40 301.60,100.00"/>
    </edge>
    <edge id="NB2_South" from="South_Most2" to="Intersection2" priority="-1">
        <lane id="NB2_South_0" index="0" speed="13.89" length="89.60" shape="304.80,-100.00 304.80,-10.40"/>
        <lane id="NB2_South_1" index="1" speed="13.89" length="89.60" shape="301.60,-100.00 301.60,-10.40"/>
    </edge>
    <edge id="NB3_North" from="Intersection3" to="North_Most3" priority="-1">
        <lane id="NB3_North_0" index="0" speed="13.89" length="89.60" shape="804.80,10.40 804.80,100.00"/>
        <lane id="NB3_North_1" index="1" speed="13.89" length="89.60" shape="801.60,10.40 801.60,100.00"/>
    </edge>
    <edge id="NB3_South" from="South_Most3" to="Intersection3" priority="-1">
        <lane id="NB3_South_0" index="0" speed="13.89" length="89.60" shape="804.80,-100.00 804.80,-10.40"/>
        <lane id="NB3_South_1" index="1" speed="13.89" length="89.60" shape="801.60,-100.00 801.60,-10.40"/>
    </edge>
    <edge id="SB1_North" from="North_Most1" to="Intersection1" priority="-1">
        <lane id="SB1_North_0" index="0" speed="13.89" length="89.60" shape="95.20,100.00 95.20,10.40"/>
        <lane id="SB1_North_1" index="1" speed="13.89" length="89.60" shape="98.40,100.00 98.40,10.40"/>
    </edge>
    <edge id="SB1_South" from="Intersection1" to="South_Most1" priority="-1">
        <lane id="SB1_South_0" index="0" speed="13.89" length="89.60" shape="95.20,-10.40 95.20,-100.00"/>
        <lane id="SB1_South_1" index="1" speed="13.89" length="89.60" shape="98.40,-10.40 98.40,-100.00"/>
    </edge>
    <edge id="SB2_North" from="North_Most2" to="Intersection2" priority="-1">
        <lane id="SB2_North_0" index="0" speed="13.89" length="89.60" shape="295.20,100.00 295.20,10.40"/>
        <lane id="SB2_North_1" index="1" speed="13.89" length="89.60" shape="298.40,100.00 298.40,10.40"/>
    </edge>
    <edge id="SB2_South" from="Intersection2" to="South_Most2" priority="-1">
        <lane id="SB2_South_0" index="0" speed="13.89" length="89.60" shape="295.20,-10.40 295.20,-100.00"/>
        <lane id="SB2_South_1" index="1" speed="13.89" length="89.60" shape="298.40,-10.40 298.40,-100.00"/>
    </edge>
    <edge id="SB3_North" from="North_Most3" to="Intersection3" priority="-1">
        <lane id="SB3_North_0" index="0" speed="13.89" length="89.60" shape="795.20,100.00 795.20,10.40"/>
        <lane id="SB3_North_1" index="1" speed="13.89" length="89.60" shape="798.40,100.00 798.40,10.40"/>
    </edge>
    <edge id="SB3_South" from="Intersection3" to="South_Most3" priority="-1">
        <lane id="SB3_South_0" index="0" speed="13.89" length="89.60" shape="795.20,-10.40 795.20,-100.00"/>
        <lane id="SB3_South_1" index="1" speed="13.89" length="89.60" shape="798.40,-10.40 798.40,-100.00"/>
    </edge>
    <edge id="WB01" from="Intersection1" to="West_Most" priority="-1">
        <lane id="WB01_0" index="0" speed="13.89" length="89.60" shape="89.60,4.80 0.00,4.80"/>
        <lane id="WB01_1" index="1" speed="13.89" length="89.60" shape="89.60,1.60 0.00,1.60"/>
    </edge>
    <edge id="WB12" from="Intersection2" to="Intersection1" priority="-1">
        <lane id="WB12_0" index="0" speed="13.89" length="179.20" shape="289.60,4.80 110.40,4.80"/>
        <lane id="WB12_1" index="1" speed="13.89" length="179.20" shape="289.60,1.60 110.40,1.60"/>
    </edge>
    <edge id="WB23" from="Intersection3" to="Intersection2" priority="-1">
        <lane id="WB23_0" index="0" speed="13.89" length="479.20" shape="789.60,4.80 310.40,4.80"/>
        <lane id="WB23_1" index="1" speed="13.89" length="479.20" shape="789.60,1.60 310.40,1.60"/>
    </edge>
    <edge id="WB34" from="East_Most" to="Intersection3" priority="-1">
        <lane id="WB34_0" index="0" speed="13.89" length="189.60" shape="1000.00,4.80 810.40,4.80"/>
        <lane id="WB34_1" index="1" speed="13.89" length="189.60" shape="1000.00,1.60 810.40,1.60"/>
    </edge>

    <tlLogic id="Intersection1" type="static" programID="0" offset="0">
        <phase duration="42" state="GGGggrrrrrGGGggrrrrr"/>
        <phase duration="3"  state="yyyyyrrrrryyyyyrrrrr"/>
        <phase duration="42" state="rrrrrGGGggrrrrrGGGgg"/>
        <phase duration="3"  state="rrrrryyyyyrrrrryyyyy"/>
    </tlLogic>
    <tlLogic id="Intersection3" type="static" programID="0" offset="0">
        <phase duration="42" state="GGGggrrrrrGGGggrrrrr"/>
        <phase duration="3"  state="yyyyyrrrrryyyyyrrrrr"/>
        <phase duration="42" state="rrrrrGGGggrrrrrGGGgg"/>
        <phase duration="3"  state="rrrrryyyyyrrrrryyyyy"/>
    </tlLogic>
    <tlLogic id="J3" type="static" programID="0" offset="0">
        <phase duration="42" state="GGGggrrrrrGGGggrrrrr"/>
        <phase duration="3"  state="yyyyyrrrrryyyyyrrrrr"/>
        <phase duration="42" state="rrrrrGGGggrrrrrGGGgg"/>
        <phase duration="3"  state="rrrrryyyyyrrrrryyyyy"/>
    </tlLogic>

    <junction id="East_Most" type="dead_end" x="1000.00" y="0.00" incLanes="EB34_0 EB34_1" intLanes="" shape="1000.00,0.00 1000.00,-6.40 1000.00,0.00"/>
    <junction id="Intersection1" type="traffic_light" x="100.00" y="0.00" incLanes="SB1_North_0 SB1_North_1 WB12_0 WB12_1 NB1_South_0 NB1_South_1 EB01_0 EB01_1" intLanes=":Intersection1_0_0 :Intersection1_1_0 :Intersection1_1_1 :Intersection1_20_0 :Intersection1_21_0 :Intersection1_5_0 :Intersection1_6_0 :Intersection1_6_1 :Intersection1_22_0 :Intersection1_23_0 :Intersection1_10_0 :Intersection1_11_0 :Intersection1_11_1 :Intersection1_24_0 :Intersection1_25_0 :Intersection1_15_0 :Intersection1_16_0 :Intersection1_16_1 :Intersection1_26_0 :Intersection1_27_0" shape="93.60,10.40 106.40,10.40 106.84,8.18 107.40,7.40 108.18,6.84 109.18,6.51 110.40,6.40 110.40,-6.40 108.18,-6.84 107.40,-7.40 106.84,-8.18 106.51,-9.18 106.40,-10.40 93.60,-10.40 93.16,-8.18 92.60,-7.40 91.82,-6.84 90.82,-6.51 89.60,-6.40 89.60,6.40 91.82,6.84 92.60,7.40 93.16,8.18 93.49,9.18">
        <request index="0"  response="00000000000000000000" foes="00000000000011000000" cont="0"/>
        <request index="1"  response="01000000000100000000" foes="01111110000111000000" cont="0"/>
        <request index="2"  response="01000000000100000000" foes="01111110000111000000" cont="0"/>
        <request index="3"  response="01000001100100000000" foes="01110001101111000000" cont="1"/>
        <request index="4"  response="01000001100000000000" foes="01000001100000000000" cont="1"/>
        <request index="5"  response="00000001100000000000" foes="00000001100000000000" cont="0"/>
        <request index="6"  response="00000011100000001111" foes="11000011100000001111" cont="0"/>
        <request index="7"  response="00000011100000001111" foes="11000011100000001111" cont="0"/>
        <request index="8"  response="00110011100000001110" foes="00110111100000001110" cont="1"/>
        <request index="9"  response="00110000000000001000" foes="00110000000000001000" cont="1"/>
        <request index="10" response="00000000000000000000" foes="00110000000000000000" cont="0"/>
        <request index="11" response="01000000000100000000" foes="01110000000111111000" cont="0"/>
        <request index="12" response="01000000000100000000" foes="01110000000111111000" cont="0"/>
        <request index="13" response="01000000000100000110" foes="11110000000111000110" cont="1"/>
        <request index="14" response="00000000000100000110" foes="00000000000100000110" cont="1"/>
        <request index="15" response="00000000000000000110" foes="00000000000000000110" cont="0"/>
        <request index="16" response="00000011110000001110" foes="00000011111100001110" cont="0"/>
        <request index="17" response="00000011110000001110" foes="00000011111100001110" cont="0"/>
        <request index="18" response="00000011100011001110" foes="00000011100011011110" cont="1"/>
        <request index="19" response="00000010000011000000" foes="00000010000011000000" cont="1"/>
    </junction>
    <junction id="Intersection2" type="traffic_light" x="300.00" y="0.00" incLanes="SB2_North_0 SB2_North_1 WB23_0 WB23_1 NB2_South_0 NB2_South_1 EB12_0 EB12_1" intLanes=":Intersection2_0_0 :Intersection2_1_0 :Intersection2_1_1 :Intersection2_20_0 :Intersection2_21_0 :Intersection2_5_0 :Intersection2_6_0 :Intersection2_6_1 :Intersection2_22_0 :Intersection2_23_0 :Intersection2_10_0 :Intersection2_11_0 :Intersection2_11_1 :Intersection2_24_0 :Intersection2_25_0 :Intersection2_15_0 :Intersection2_16_0 :Intersection2_16_1 :Intersection2_26_0 :Intersection2_27_0" shape="293.60,10.40 306.40,10.40 306.84,8.18 307.40,7.40 308.18,6.84 309.18,6.51 310.40,6.40 310.40,-6.40 308.18,-6.84 307.40,-7.40 306.84,-8.18 306.51,-9.18 306.40,-10.40 293.60,-10.40 293.16,-8.18 292.60,-7.40 291.82,-6.84 290.82,-6.51 289.60,-6.40 289.60,6.40 291.82,6.84 292.60,7.40 293.16,8.18 293.49,9.18">
        <request index="0"  response="00000000000000000000" foes="00000000000011000000" cont="0"/>
        <request index="1"  response="01000000000100000000" foes="01111110000111000000" cont="0"/>
        <request index="2"  response="01000000000100000000" foes="01111110000111000000" cont="0"/>
        <request index="3"  response="01000001100100000000" foes="01110001101111000000" cont="1"/>
        <request index="4"  response="01000001100000000000" foes="01000001100000000000" cont="1"/>
        <request index="5"  response="00000001100000000000" foes="00000001100000000000" cont="0"/>
        <request index="6"  response="00000011100000001111" foes="11000011100000001111" cont="0"/>
        <request index="7"  response="00000011100000001111" foes="11000011100000001111" cont="0"/>
        <request index="8"  response="00110011100000001110" foes="00110111100000001110" cont="1"/>
        <request index="9"  response="00110000000000001000" foes="00110000000000001000" cont="1"/>
        <request index="10" response="00000000000000000000" foes="00110000000000000000" cont="0"/>
        <request index="11" response="01000000000100000000" foes="01110000000111111000" cont="0"/>
        <request index="12" response="01000000000100000000" foes="01110000000111111000" cont="0"/>
        <request index="13" response="01000000000100000110" foes="11110000000111000110" cont="1"/>
        <request index="14" response="00000000000100000110" foes="00000000000100000110" cont="1"/>
        <request index="15" response="00000000000000000110" foes="00000000000000000110" cont="0"/>
        <request index="16" response="00000011110000001110" foes="00000011111100001110" cont="0"/>
        <request index="17" response="00000011110000001110" foes="00000011111100001110" cont="0"/>
        <request index="18" response="00000011100011001110" foes="00000011100011011110" cont="1"/>
        <request index="19" response="00000010000011000000" foes="00000010000011000000" cont="1"/>
    </junction>