<?xml version="1.0" encoding="UTF-8"?>

<!-- generated on 2026-02-19 10:36:15 by Eclipse SUMO netedit Version 1.21.0
<neteditConfiguration xmlns:xsi="http://www.w3.org/2001/XMLSchema-instance" xsi:noNamespaceSchemaLocation="http://sumo.dlr.de/xsd/neteditConfiguration.xsd">

    <input>
        <sumo-net-file value="single_intersection_EW2_NS2_template.net.xml"/>
    </input>

    <output>
        <output-file value="single_intersection_EW2_NS2_template.net.xml"/>
    </output>

    <processing>
        <geometry.min-radius.fix.railways value="false"/>
        <geometry.max-grade.fix value="false"/>
        <offset.disable-normalization value="true"/>
        <lefthand value="0"/>
    </processing>

    <junctions>
        <no-internal-links value="false"/>
        <no-turnarounds value="true"/>
        <junctions.corner-detail value="5"/>
        <junctions.limit-turn-speed value="5.50"/>
        <rectangular-lane-cut value="0"/>
    </junctions>

    <pedestrian>
        <walkingareas value="0"/>
    </pedestrian>

</neteditConfiguration>
-->

<net version="1.20" junctionCornerDetail="5" limitTurnSpeed="5.50" xmlns:xsi="http://www.w3.org/2001/XMLSchema-instance" xsi:noNamespaceSchemaLocation="http://sumo.dlr.de/xsd/net_file.xsd">

    <location netOffset="0.00,0.00" convBoundary="-200.00,-200.00,200.00,200.00" origBoundary="-10000000000.00,-10000000000.00,10000000000.00,10000000000.00" projParameter="!"/>

    <edge id=":Intersection_0" function="internal">
        <lane id=":Intersection_0_0" index="0" allow="pedestrian" speed="6.95" length="8.87" width="8.00" shape="-11.40,16.90 -11.74,14.49 -12.78,12.77 -14.49,11.74 -16.90,11.40"/>
    </edge>
    <edge id=":Intersection_1" function="internal">
        <lane id=":Intersection_1_0" index="0" allow="pedestrian" speed="13.89" length="33.80" width="8.00" shape="-11.40,16.90 -11.40,-16.90"/>
    </edge>
    <edge id=":Intersection_2" function="internal">
        <lane id=":Intersection_2_0" index="0" allow="pedestrian" speed="13.63" length="2.05" width="8.00" shape="-11.40,16.90 -10.66,14.99"/>
    </edge>
    <edge id=":Intersection_3" function="internal">
        <lane id=":Intersection_3_0" index="0" allow="bicycle" speed="13.89" length="33.80" width="2.00" shape="-6.90,16.90 -6.90,-16.90"/>
    </edge>
    <edge id=":Intersection_4" function="internal">
        <lane id=":Intersection_4_0" index="0" disallow="pedestrian bicycle" speed="9.29" length="1.48" shape="-4.80,16.90 -5.01,15.44"/>
    </edge>
    <edge id=":Intersection_5" function="internal">
        <lane id=":Intersection_5_0" index="0" disallow="pedestrian bicycle" speed="13.89" length="33.80" shape="-4.80,16.90 -4.80,-16.90"/>
        <lane id=":Intersection_5_1" index="1" disallow="pedestrian bicycle" speed="13.89" length="33.80" shape="-1.60,16.90 -1.60,-16.90"/>
    </edge>
    <edge id=":Intersection_7" function="internal">
        <lane id=":Intersection_7_0" index="0" disallow="pedestrian bicycle" speed="11.10" length="4.08" shape="-1.60,16.90 -0.60,12.94"/>
    </edge>
    <edge id=":Intersection_32" function="internal">
        <lane id=":Intersection_32_0" index="0" allow="pedestrian" speed="13.63" length="39.57" width="8.00" shape="-10.66,14.99 -8.23,8.73 -0.58,-0.58 8.73,-8.23 16.90,-11.40"/>
    </edge>
    <edge id=":Intersection_33" function="internal">
        <lane id=":Intersection_33_0" index="0" disallow="pedestrian bicycle" speed="9.29" length="18.04" shape="-5.01,15.44 -5.56,11.61 -7.83,7.82 -11.61,5.56 -16.90,4.80"/>
    </edge>
    <edge id=":Intersection_34" function="internal">
        <lane id=":Intersection_34_0" index="0" disallow="pedestrian bicycle" speed="11.10" length="24.18" shape="-0.60,12.94 0.06,10.33 4.38,4.38 10.33,0.06 16.90,-1.60"/>
    </edge>
    <edge id=":Intersection_8" function="internal">
        <lane id=":Intersection_8_0" index="0" allow="pedestrian" speed="6.95" length="8.87" width="8.00" shape="16.90,11.40 14.49,11.74 12.77,12.78 11.74,14.49 11.40,16.90"/>
    </edge>
    <edge id=":Intersection_9" function="internal">
        <lane id=":Intersection_9_0" index="0" allow="pedestrian" speed="13.89" length="33.80" width="8.00" shape="16.90,11.40 -16.90,11.40"/>
    </edge>
    <edge id=":Intersection_10" function="internal">
        <lane id=":Intersection_10_0" index="0" allow="pedestrian" speed="13.63" length="21.57" width="8.00" shape="16.90,11.40 8.73,8.23 -0.58,0.58 -1.06,-0.00"/>
    </edge>
    <edge id=":Intersection_11" function="internal">
        <lane id=":Intersection_11_0" index="0" allow="bicycle" speed="13.89" length="33.80" width="2.00" shape="16.90,6.90 -16.90,6.90"/>
    </edge>
    <edge id=":Intersection_12" function="internal">
        <lane id=":Intersection_12_0" index="0" disallow="pedestrian bicycle" speed="9.29" length="1.48" shape="16.90,4.80 15.44,5.01"/>
    </edge>
    <edge id=":Intersection_13" function="internal">
        <lane id=":Intersection_13_0" index="0" disallow="pedestrian bicycle" speed="13.89" length="33.80" shape="16.90,4.80 -16.90,4.80"/>
        <lane id=":Intersection_13_1" index="1" disallow="pedestrian bicycle" speed="13.89" length="33.80" shape="16.90,1.60 -16.90,1.60"/>
    </edge>
    <edge id=":Intersection_15" function="internal">
        <lane id=":Intersection_15_0" index="0" disallow="pedestrian bicycle" speed="11.10" length="5.01" shape="16.90,1.60 12.04,0.37"/>
    </edge>
    <edge id=":Intersection_35" function="internal">
        <lane id=":Intersection_35_0" index="0" allow="pedestrian" speed="13.63" length="20.06" width="8.00" shape="-1.06,-0.00 -8.23,-8.73 -11.40,-16.90"/>
    </edge>
    <edge id=":Intersection_36" function="internal">
        <lane id=":Intersection_36_0" index="0" disallow="pedestrian bicycle" speed="9.29" length="18.04" shape="15.44,5.01 11.61,5.56 7.82,7.83 5.56,11.61 4.80,16.90"/>
    </edge>
    <edge id=":Intersection_37" function="internal">
        <lane id=":Intersection_37_0" index="0" disallow="pedestrian bicycle" speed="11.10" length="23.24" shape="12.04,0.37 10.33,-0.06 4.38,-4.38 0.06,-10.33 -1.60,-16.90"/>
    </edge>
    <edge id=":Intersection_16" function="internal">
        <lane id=":Intersection_16_0" index="0" allow="pedestrian" speed="6.95" length="8.87" width="8.00" shape="11.40,-16.90 11.74,-14.49 12.78,-12.77 14.49,-11.74 16.90,-11.40"/>
    </edge>
    <edge id=":Intersection_17" function="internal">
        <lane id=":Intersection_17_0" index="0" allow="pedestrian" speed="13.89" length="33.80" width="8.00" shape="11.40,-16.90 11.40,16.90"/>
    </edge>
    <edge id=":Intersection_18" function="internal">
        <lane id=":Intersection_18_0" index="0" allow="pedestrian" speed="13.63" length="2.05" width="8.00" shape="11.40,-16.90 10.66,-14.99"/>
    </edge>
    <edge id=":Intersection_19" function="internal">
        <lane id=":Intersection_19_0" index="0" allow="bicycle" speed="13.89" length="33.80" width="2.00" shape="6.90,-16.90 6.90,16.90"/>
    </edge>
    <edge id=":Intersection_20" function="internal">
        <lane id=":Intersection_20_0" index="0" disallow="pedestrian bicycle" speed="9.29" length="1.48" shape="4.80,-16.90 5.01,-15.44"/>
    </edge>
    <edge id=":Intersection_21" function="internal">
        <lane id=":Intersection_21_0" index="0" disallow="pedestrian bicycle" speed="13.89" length="33.80" shape="4.80,-16.90 4.80,16.90"/>
        <lane id=":Intersection_21_1" index="1" disallow="pedestrian bicycle" speed="13.89" length="33.80" shape="1.60,-16.90 1.60,16.90"/>
    </edge>
    <edge id=":Intersection_23" function="internal">
        <lane id=":Intersection_23_0" index="0" disallow="pedestrian bicycle" speed="11.10" length="4.08" shape="1.60,-16.90 0.60,-12.94"/>
    </edge>
    <edge id=":Intersection_38" function="internal">
        <lane id=":Intersection_38_0" index="0" allow="pedestrian" speed="13.63" length="39.57" width="8.00" shape="10.66,-14.99 8.23,-8.73 0.58,0.58 -8.73,8.23 -16.90,11.40"/>
    </edge>
    <edge id=":Intersection_39" function="internal">
        <lane id=":Intersection_39_0" index="0" disallow="pedestrian bicycle" speed="9.29" length="18.04" shape="5.01,-15.44 5.56,-11.61 7.83,-7.82 11.61,-5.56 16.90,-4.80"/>
    </edge>
    <edge id=":Intersection_40" function="internal">
        <lane id=":Intersection_40_0" index="0" disallow="pedestrian bicycle" speed="11.10" length="24.18" shape="0.60,-12.94 -0.06,-10.33 -4.38,-4.38 -10.33,-0.06 -16.90,1.60"/>
    </edge>
    <edge id=":Intersection_24" function="internal">
        <lane id=":Intersection_24_0" index="0" allow="pedestrian" speed="6.95" length="8.87" width="8.00" shape="-16.90,-11.40 -14.49,-11.74 -12.77,-12.78 -11.74,-14.49 -11.40,-16.90"/>
    </edge>
    <edge id=":Intersection_25" function="internal">
        <lane id=":Intersection_25_0" index="0" allow="pedestrian" speed="13.89" length="33.80" width="8.00" shape="-16.90,-11.40 16.90,-11.40"/>
    </edge>
    <edge id=":Intersection_26" function="internal">
        <lane id=":Intersection_26_0" index="0" allow="pedestrian" speed="13.63" length="21.57" width="8.00" shape="-16.90,-11.40 -8.73,-8.23 0.58,-0.58 1.06,0.00"/>
    </edge>
    <edge id=":Intersection_27" function="internal">
        <lane id=":Intersection_27_0" index="0" allow="bicycle" speed="13.89" length="33.80" width="2.00" shape="-16.90,-6.90 16.90,-6.90"/>
    </edge>
    <edge id=":Intersection_28" function="internal">
        <lane id=":Intersection_28_0" index="0" disallow="pedestrian bicycle" speed="9.29" length="1.48" shape="-16.90,-4.80 -15.44,-5.01"/>
    </edge>
    <edge id=":Intersection_29" function="internal">
        <lane id=":Intersection_29_0" index="0" disallow="pedestrian bicycle" speed="13.89" length="33.80" shape="-16.90,-4.80 16.90,-4.80"/>
        <lane id=":Intersection_29_1" index="1" disallow="pedestrian bicycle" speed="13.89" length="33.80" shape="-16.90,-1.60 16.90,-1.60"/>
    </edge>
    <edge id=":Intersection_31" function="internal">
        <lane id=":Intersection_31_0" index="0" disallow="pedestrian bicycle" speed="11.10" length="5.01" shape="-16.90,-1.60 -12.04,-0.37"/>
    </edge>
    <edge id=":Intersection_41" function="internal">
        <lane id=":Intersection_41_0" index="0" allow="pedestrian" speed="13.63" length="20.06" width="8.00" shape="1.06,0.00 8.23,8.73 11.40,16.90"/>
    </edge>
    <edge id=":Intersection_42" function="internal">
        <lane id=":Intersection_42_0" index="0" disallow="pedestrian bicycle" speed="9.29" length="18.04" shape="-15.44,-5.01 -11.61,-5.56 -7.82,-7.83 -5.56,-11.61 -4.80,-16.90"/>
    </edge>
    <edge id=":Intersection_43" function="internal">
        <lane id=":Intersection_43_0" index="0" disallow="pedestrian bicycle" speed="11.10" length="23.24" shape="-12.04,-0.37 -10.33,0.06 -4.38,4.38 -0.06,10.33 1.60,16.90"/>
    </edge>
    <!-- Bicycle right-turn internal edges (lane 1 to lane 1) -->
    <edge id=":Intersection_44" function="internal">
        <lane id=":Intersection_44_0" index="0" allow="bicycle" speed="9.29" length="14.14" width="2.00" shape="-16.90,-6.90 -11.90,-11.90 -6.90,-16.90"/>
    </edge>
    <edge id=":Intersection_45" function="internal">
        <lane id=":Intersection_45_0" index="0" allow="bicycle" speed="9.29" length="14.14" width="2.00" shape="16.90,6.90 11.90,11.90 6.90,16.90"/>
    </edge>
    <edge id=":Intersection_46" function="internal">
        <lane id=":Intersection_46_0" index="0" allow="bicycle" speed="9.29" length="14.14" width="2.00" shape="-6.90,16.90 -11.90,11.90 -16.90,6.90"/>
    </edge>
    <edge id=":Intersection_47" function="internal">
        <lane id=":Intersection_47_0" index="0" allow="bicycle" speed="9.29" length="14.14" width="2.00" shape="6.90,-16.90 11.90,-11.90 16.90,-6.90"/>
    </edge>
    <edge id=":Intersection_c0" function="crossing" crossingEdges="NB_North SB_North">
        <lane id=":Intersection_c0_0" index="0" allow="pedestrian" speed="2.78" length="14.80" width="8.00" shape="7.40,12.90 -7.40,12.90" outlineShape="7.50,16.90 -7.50,16.90 -7.66,14.00 -8.46,11.62 -9.78,9.78 -11.00,8.90 11.00,8.90 9.78,9.78 8.46,11.62 7.66,14.00"/>
    </edge>
    <edge id=":Intersection_c1" function="crossing" crossingEdges="EB_East WB_East">
        <lane id=":Intersection_c1_0" index="0" allow="pedestrian" speed="2.78" length="14.80" width="8.00" shape="12.90,-7.40 12.90,7.40" outlineShape="16.90,-7.50 16.90,7.50 14.00,7.66 11.62,8.46 9.78,9.78 8.90,11.00 8.90,-11.00 9.78,-9.78 11.62,-8.46 14.00,-7.66"/>
    </edge>
    <edge id=":Intersection_c2" function="crossing" crossingEdges="SB_South NB_South">
        <lane id=":Intersection_c2_0" index="0" allow="pedestrian" speed="2.78" length="14.80" width="8.00" shape="-7.40,-12.90 7.40,-12.90" outlineShape="-7.50,-16.90 7.50,-16.90 7.66,-14.00 8.46,-11.62 9.78,-9.78 11.00,-8.90 -11.00,-8.90 -9.78,-9.78 -8.46,-11.62 -7.66,-14.00"/>
    </edge>
    <edge id=":Intersection_c3" function="crossing" crossingEdges="WB_West EB_West">
        <lane id=":Intersection_c3_0" index="0" allow="pedestrian" speed="2.78" length="14.80" width="8.00" shape="-12.90,7.40 -12.90,-7.40" outlineShape="-16.90,7.50 -16.90,-7.50 -14.00,-7.66 -11.62,-8.46 -9.78,-9.78 -8.90,-11.00 -8.90,11.00 -9.78,9.78 -11.62,8.46 -14.00,7.66"/>
    </edge>
    <edge id=":Intersection_w0" function="walkingarea">
        <lane id=":Intersection_w0_0" index="0" allow="pedestrian" speed="2.78" length="7.68" width="8.00" shape="-16.90,7.40 -16.90,15.40 -15.40,16.90 -7.40,16.90 -7.66,14.00 -8.46,11.62 -9.78,9.78 -11.62,8.46 -14.00,7.66"/>
    </edge>
    <edge id=":Intersection_w1" function="walkingarea">
        <lane id=":Intersection_w1_0" index="0" allow="pedestrian" speed="2.78" length="7.68" width="8.00" shape="7.40,16.90 15.40,16.90 16.90,15.40 16.90,7.40 14.00,7.66 11.62,8.46 9.78,9.78 8.46,11.62 7.66,14.00"/>
    </edge>
    <edge id=":Intersection_w2" function="walkingarea">
        <lane id=":Intersection_w2_0" index="0" allow="pedestrian" speed="2.78" length="7.68" width="8.00" shape="16.90,-7.40 16.90,-15.40 15.40,-16.90 7.40,-16.90 7.66,-14.00 8.46,-11.62 9.78,-9.78 11.62,-8.46 14.00,-7.66"/>
    </edge>
    <edge id=":Intersection_w3" function="walkingarea">
        <lane id=":Intersection_w3_0" index="0" allow="pedestrian" speed="2.78" length="7.68" width="8.00" shape="-7.40,-16.90 -15.40,-16.90 -16.90,-15.40 -16.90,-7.40 -14.00,-7.66 -11.62,-8.46 -9.78,-9.78 -8.46,-11.62 -7.66,-14.00"/>
    </edge>

    <edge id="EB_East" from="Intersection" to="East_out" priority="-1">
        <lane id="EB_East_0" index="0" allow="pedestrian" speed="13.89" length="183.10" width="8.00" shape="16.90,-11.40 200.00,-11.40"/>
        <lane id="EB_East_1" index="1" allow="bicycle" speed="13.89" length="183.10" width="2.00" shape="16.90,-6.90 200.00,-6.90"/>
        <lane id="EB_East_2" index="2" disallow="pedestrian bicycle" speed="13.89" length="183.10" shape="16.90,-4.80 200.00,-4.80"/>
        <lane id="EB_East_3" index="3" disallow="pedestrian bicycle" speed="13.89" length="183.10" shape="16.90,-1.60 200.00,-1.60"/>
    </edge>
    <edge id="EB_West" from="West_in" to="Intersection" priority="-1">
        <lane id="EB_West_0" index="0" allow="pedestrian" speed="13.89" length="183.10" width="8.00" shape="-200.00,-11.40 -16.90,-11.40"/>
        <lane id="EB_West_1" index="1" allow="bicycle" speed="13.89" length="183.10" width="2.00" shape="-200.00,-6.90 -16.90,-6.90"/>
        <lane id="EB_West_2" index="2" disallow="pedestrian bicycle" speed="13.89" length="183.10" shape="-200.00,-4.80 -16.90,-4.80"/>
        <lane id="EB_West_3" index="3" disallow="pedestrian bicycle" speed="13.89" length="183.10" shape="-200.00,-1.60 -16.90,-1.60"/>
    </edge>
    <edge id="NB_North" from="Intersection" to="North_out" priority="-1">
        <lane id="NB_North_0" index="0" allow="pedestrian" speed="13.89" length="183.10" width="8.00" shape="11.40,16.90 11.40,200.00"/>
        <lane id="NB_North_1" index="1" allow="bicycle" speed="13.89" length="183.10" width="2.00" shape="6.90,16.90 6.90,200.00"/>
        <lane id="NB_North_2" index="2" disallow="pedestrian bicycle" speed="13.89" length="183.10" shape="4.80,16.90 4.80,200.00"/>
        <lane id="NB_North_3" index="3" disallow="pedestrian bicycle" speed="13.89" length="183.10" shape="1.60,16.90 1.60,200.00"/>
    </edge>
    <edge id="NB_South" from="South_in" to="Intersection" priority="-1">
        <lane id="NB_South_0" index="0" allow="pedestrian" speed="13.89" length="183.10" width="8.00" shape="11.40,-200.00 11.40,-16.90"/>
        <lane id="NB_South_1" index="1" allow="bicycle" speed="13.89" length="183.10" width="2.00" shape="6.90,-200.00 6.90,-16.90"/>
        <lane id="NB_South_2" index="2" disallow="pedestrian bicycle" speed="13.89" length="183.10" shape="4.80,-200.00 4.80,-16.90"/>
        <lane id="NB_South_3" index="3" disallow="pedestrian bicycle" speed="13.89" length="183.10" shape="1.60,-200.00 1.60,-16.90"/>
    </edge>
    <edge id="SB_North" from="North_in" to="Intersection" priority="-1">
        <lane id="SB_North_0" index="0" allow="pedestrian" speed="13.89" length="183.10" width="8.00" shape="-11.40,200.00 -11.40,16.90"/>
        <lane id="SB_North_1" index="1" allow="bicycle" speed="13.89" length="183.10" width="2.00" shape="-6.90,200.00 -6.90,16.90"/>
        <lane id="SB_North_2" index="2" disallow="pedestrian bicycle" speed="13.89" length="183.10" shape="-4.80,200.00 -4.80,16.90"/>
        <lane id="SB_North_3" index="3" disallow="pedestrian bicycle" speed="13.89" length="183.10" shape="-1.60,200.00 -1.60,16.90"/>
    </edge>
    <edge id="SB_South" from="Intersection" to="South_out" priority="-1">
        <lane id="SB_South_0" index="0" allow="pedestrian" speed="13.89" length="183.10" width="8.00" shape="-11.40,-16.90 -11.40,-200.00"/>
        <lane id="SB_South_1" index="1" allow="bicycle" speed="13.89" length="183.10" width="2.00" shape="-6.90,-16.90 -6.90,-200.00"/>
        <lane id="SB_South_2" index="2" disallow="pedestrian bicycle" speed="13.89" length="183.10" shape="-4.80,-16.90 -4.80,-200.00"/>
        <lane id="SB_South_3" index="3" disallow="pedestrian bicycle" speed="13.89" length="183.10" shape="-1.60,-16.90 -1.60,-200.00"/>
    </edge>
    <edge id="WB_East" from="East_in" to="Intersection" priority="-1">
        <lane id="WB_East_0" index="0" allow="pedestrian" speed="13.89" length="183.10" width="8.00" shape="200.00,11.40 16.90,11.40"/>
        <lane id="WB_East_1" index="1" allow="bicycle" speed="13.89" length="183.10" width="2.00" shape="200.00,6.90 16.90,6.90"/>
        <lane id="WB_East_2" index="2" disallow="pedestrian bicycle" speed="13.89" length="183.10" shape="200.00,4.80 16.90,4.80"/>
        <lane id="WB_East_3" index="3" disallow="pedestrian bicycle" speed="13.89" length="183.10" shape="200.00,1.60 16.90,1.60"/>
    </edge>
    <edge id="WB_West" from="Intersection" to="West_out" priority="-1">
        <lane id="WB_West_0" index="0" allow="pedestrian" speed="13.89" length="183.10" width="8.00" shape="-16.90,11.40 -200.00,11.40"/>
        <lane id="WB_West_1" index="1" allow="bicycle" speed="13.89" length="183.10" width="2.00" shape="-16.90,6.90 -200.00,6.90"/>
        <lane id="WB_West_2" index="2" disallow="pedestrian bicycle" speed="13.89" length="183.10" shape="-16.90,4.80 -200.00,4.80"/>
        <lane id="WB_West_3" index="3" disallow="pedestrian bicycle" speed="13.89" length="183.10" shape="-16.90,1.60 -200.00,1.60"/>
    </edge>

    <tlLogic id="J1" type="static" programID="0" offset="0">
        <phase duration="36" state="gGgGgGGgrrrrrrrrgGgGgGGgrrrrrrrrrGrG"/>
        <phase duration="5"  state="gGgGgGGgrrrrrrrrgGgGgGGgrrrrrrrrrrrr"/>
        <phase duration="3"  state="yyyyyyyyrrrrrrrryyyyyyyyrrrrrrrrrrrr"/>
        <phase duration="1"  state="rrrrrrrrrrrrrrrrrrrrrrrrrrrrrrrrrrrr"/>
        <phase duration="36" state="rrrrrrrrgGgGgGGgrrrrrrrrgGgGgGGgGrGr"/>
        <phase duration="5"  state="rrrrrrrrgGgGgGGgrrrrrrrrgGgGgGGgrrrr"/>
        <phase duration="3"  state="rrrrrrrryyyyyyyyrrrrrrrryyyyyyyyrrrr"/>
        <phase duration="1"  state="rrrrrrrrrrrrrrrrrrrrrrrrrrrrrrrrrrrr"/>
    </tlLogic>

    <junction id="East_in" type="dead_end" x="200.00" y="0.00" incLanes="" intLanes="" shape="200.00,0.00 200.00,15.40"/>
    <junction id="East_out" type="dead_end" x="200.00" y="0.00" incLanes="EB_East_0 EB_East_1 EB_East_2 EB_East_3" intLanes="" shape="200.00,-15.40 200.00,0.00"/>
    <junction id="Intersection" type="traffic_light" x="0.00" y="0.00" incLanes="SB_North_0 SB_North_1 SB_North_2 SB_North_3 WB_East_0 WB_East_1 WB_East_2 WB_East_3 NB_South_0 NB_South_1 NB_South_2 NB_South_3 EB_West_0 EB_West_1 EB_West_2 EB_West_3 :Intersection_w1_0 :Intersection_w2_0 :Intersection_w3_0 :Intersection_w0_0" intLanes=":Intersection_0_0 :Intersection_1_0 :Intersection_32_0 :Intersection_3_0 :Intersection_33_0 :Intersection_5_0 :Intersection_5_1 :Intersection_34_0 :Intersection_8_0 :Intersection_9_0 :Intersection_35_0 :Intersection_11_0 :Intersection_36_0 :Intersection_13_0 :Intersection_13_1 :Intersection_37_0 :Intersection_16_0 :Intersection_17_0 :Intersection_38_0 :Intersection_19_0 :Intersection_39_0 :Intersection_21_0 :Intersection_21_1 :Intersection_40_0 :Intersection_24_0 :Intersection_25_0 :Intersection_41_0 :Intersection_27_0 :Intersection_42_0 :Intersection_29_0 :Intersection_29_1 :Intersection_43_0 :Intersection_c0_0 :Intersection_c1_0 :Intersection_c2_0 :Intersection_c3_0" shape="-15.40,16.90 15.40,16.90 15.57,16.07 15.78,15.78 16.07,15.57 16.44,15.44 16.90,15.40 16.90,-15.40 16.07,-15.57 15.78,-15.78 15.57,-16.07 15.44,-16.44 15.40,-16.90 -15.40,-16.90 -15.57,-16.07 -15.78,-15.78 -16.07,-15.57 -16.44,-15.44 -16.90,-15.40 -16.90,15.40 -16.07,15.57 -15.78,15.78 -15.57,16.07 -15.44,16.44">
        <request index="0"  response="100100000000000000000000000000000000" foes="100100000000000001000000001000000000" cont="0"/>
        <request index="1"  response="010110010100000000000000010000000000" foes="010111111111100001000110111000010000" cont="0"/>
        <request index="2"  response="001110000100011110111000010001101000" foes="001111101110011111111110111001111000" cont="1"/>
        <request index="3"  response="010110010100000000000000010000000000" foes="010111111110100001000110111000010100" cont="0"/>
        <request index="4"  response="100100000000000000000000000000001110" foes="100100000000100001000110101000001110" cont="1"/>
        <request index="5"  response="010110010100000000001000010000000000" foes="010111111110100001001110111000000100" cont="0"/>
        <request index="6"  response="010110010100000000001000010000000000" foes="010111111110100001001110111000000100" cont="0"/>
        <request index="7"  response="001110000100011110101000010000000000" foes="001111100100011110101110111000000000" cont="1"/>
        <request index="8"  response="001100000000000000100000000000000000" foes="001100000100000000100000000000000000" cont="0"/>
        <request index="9"  response="101000000000011011100000000011111111" foes="101010000100011011100001000011111111" cont="0"/>
        <request index="10" response="011001111011111011100110100011101110" foes="011001111111111011100111100011101110" cont="1"/>
        <request index="11" response="101000000000011011100000000011111110" foes="101010000100011011100001010011111110" cont="0"/>
        <request index="12" response="001100000000011010100000111000000000" foes="001110000100011010100000111000000000" cont="1"/>
        <request index="13" response="101000000000111011100000000011111110" foes="101010000100111011100000010011111110" cont="0"/>
        <request index="14" response="101000000000111011100000000011111110" foes="101010000100111011100000010011111110" cont="0"/>
        <request index="15" response="011001111010111011100000000011100100" foes="011001111010111011100000000011100100" cont="1"/>
        <request index="16" response="011000000000000000000000000000000000" foes="011000000010000000000000000000000100" cont="0"/>
        <request index="17" response="010100000100000000001001010000000000" foes="010101101110000100001111111110000100" cont="0"/>
        <request index="18" response="110010000100011010001000010001111111" foes="110011101110011110001110111001111111" cont="1"/>
        <request index="19" response="010100000100000000001001010000000000" foes="010101101110000101001111111010000100" cont="0"/>
        <request index="20" response="011000000000000011100000000000000000" foes="011001101010000011100000000010000100" cont="1"/>
        <request index="21" response="010110000100000000001001010000000000" foes="010111101110000001001111111010000100" cont="0"/>
        <request index="22" response="010110000100000000001001010000000000" foes="010111101110000001001111111010000100" cont="0"/>
        <request index="23" response="110010000100000000001000010001111010" foes="110011101110000000001110010001111010" cont="1"/>
        <request index="24" response="110000000000000000000000000000000010" foes="110000000000000000000000010000000010" cont="0"/>
        <request index="25" response="101000000000111111110000000001101110" foes="101000010000111111111000010001101110" cont="0"/>
        <request index="26" response="100101101000111011100111111111101110" foes="100101111000111011100111111111101110" cont="1"/>
        <request index="27" response="101000000000111111100000000001101110" foes="101000010100111111101000010001101110" cont="0"/>
        <request index="28" response="110000001110000000000000000001101010" foes="110000001110000000001000010001101010" cont="1"/>
        <request index="29" response="101000000000111111100000000011101110" foes="101000000100111111101000010011101110" cont="0"/>
        <request index="30" response="101000000000111111100000000011101110" foes="101000000100111111101000010011101110" cont="0"/>
        <request index="31" response="100100000000111001000111101011101110" foes="100100000000111001000111101011101110" cont="1"/>
        <request index="32" response="000000000000000000000000000000000000" foes="000010000100011010100001000111111111" cont="0"/>
        <request index="33" response="000000000000000000000000000000000000" foes="000001101010000100011111111110000100" cont="0"/>
        <request index="34" response="000000000000000000000000000000000000" foes="000000010001111111111000010001101010" cont="0"/>
        <request index="35" response="000000000000000000000000000000000000" foes="000011111111100001000110101000010001" cont="0"/>
    </junction>
    <junction id="North_in" type="dead_end" x="0.00" y="200.00" incLanes="" intLanes="" shape="0.00,200.00 -15.40,200.00"/>
    <junction id="North_out" type="dead_end" x="0.00" y="200.00" incLanes="NB_North_0 NB_North_1 NB_North_2 NB_North_3" intLanes="" shape="15.40,200.00 0.00,200.00"/>
    <junction id="South_in" type="dead_end" x="0.00" y="-200.00" incLanes="" intLanes="" shape="0.00,-200.00 15.40,-200.00"/>
    <junction id="South_out" type="dead_end" x="0.00" y="-200.00" incLanes="SB_South_0 SB_South_1 SB_South_2 SB_South_3" intLanes="" shape="-15.40,-200.00 0.00,-200.00"/>
    <junction id="West_in" type="dead_end" x="-200.00" y="0.00" incLanes="" intLanes="" shape="-200.00,0.00 -200.00,-15.40"/>
    <junction id="West_out" type="dead_end" x="-200.00" y="0.00" incLanes="WB_West_0 WB_West_1 WB_West_2 WB_West_3" intLanes="" shape="-200.00,15.40 -200.00,0.00"/>

    <junction id=":Intersection_32_0" type="internal" x="-10.66" y="14.99" incLanes=":Intersection_2_0 NB_South_0 NB_South_1 NB_South_2 NB_South_3" intLanes=":Intersection_3_0 :Intersection_5_0 :Intersection_5_1 :Intersection_9_0 :Intersection_10_0 :Intersection_11_0 :Intersection_13_0 :Intersection_13_1 :Intersection_15_0 :Intersection_16_0 :Intersection_17_0 :Intersection_18_0 :Intersection_19_0 :Intersection_20_0 :Intersection_21_0 :Intersection_21_1 :Intersection_25_0 :Intersection_26_0 :Intersection_27_0 :Intersection_29_0 :Intersection_29_1 :Intersection_31_0 :Intersection_c0_0 :Intersection_c1_0"/>
    <junction id=":Intersection_33_0" type="internal" x="-5.01" y="15.44" incLanes=":Intersection_4_0 SB_North_0 SB_North_1" intLanes=":Intersection_1_0 :Intersection_2_0 :Intersection_3_0 :Intersection_9_0 :Intersection_11_0 :Intersection_13_0 :Intersection_13_1 :Intersection_18_0 :Intersection_23_0 :Intersection_c0_0 :Intersection_c3_0"/>
    <junction id=":Intersection_34_0" type="internal" x="-0.60" y="12.94" incLanes=":Intersection_7_0 NB_South_0 NB_South_1 NB_South_2 NB_South_3" intLanes=":Intersection_9_0 :Intersection_10_0 :Intersection_11_0 :Intersection_13_0 :Intersection_13_1 :Intersection_15_0 :Intersection_16_0 :Intersection_17_0 :Intersection_18_0 :Intersection_19_0 :Intersection_20_0 :Intersection_21_0 :Intersection_21_1 :Intersection_25_0 :Intersection_26_0 :Intersection_27_0 :Intersection_29_0 :Intersection_29_1 :Intersection_31_0 :Intersection_c0_0 :Intersection_c1_0"/>
    <junction id=":Intersection_35_0" type="internal" x="-1.06" y="-0.00" incLanes=":Intersection_10_0 EB_West_0 EB_West_1 EB_West_2 EB_West_3" intLanes=":Intersection_1_0 :Intersection_2_0 :Intersection_3_0 :Intersection_5_0 :Intersection_5_1 :Intersection_7_0 :Intersection_11_0 :Intersection_13_0 :Intersection_13_1 :Intersection_17_0 :Intersection_18_0 :Intersection_19_0 :Intersection_21_0 :Intersection_21_1 :Intersection_23_0 :Intersection_24_0 :Intersection_25_0 :Intersection_26_0 :Intersection_27_0 :Intersection_28_0 :Intersection_29_0 :Intersection_29_1 :Intersection_c1_0 :Intersection_c2_0"/>
    <junction id=":Intersection_36_0" type="internal" x="15.44" y="5.01" incLanes=":Intersection_12_0 WB_East_0 WB_East_1" intLanes=":Intersection_9_0 :Intersection_10_0 :Intersection_11_0 :Intersection_17_0 :Intersection_19_0 :Intersection_21_0 :Intersection_21_1 :Intersection_26_0 :Intersection_31_0 :Intersection_c0_0 :Intersection_c1_0"/>