<?xml version="1.0" encoding="UTF-8"?>

<!-- generated on 2026-02-19 23:34:00 by Eclipse SUMO netedit Version 1.21.0
<neteditConfiguration xmlns:xsi="http://www.w3.org/2001/XMLSchema-instance" xsi:noNamespaceSchemaLocation="http://sumo.dlr.de/xsd/neteditConfiguration.xsd">

    <input>
        <sumo-net-file value="single_intersection_EW3_NS2_template.net.xml"/>
    </input>

    <output>
        <output-file value="single_intersection_EW3_NS2_template.net.xml"/>
    </output>

    <processing>
        <geometry.min-radius.fix.railways value="false"/>
        <geometry.max-grade.fix value="false"/>
        <offset.disable-normalization value="true"/>
        <lefthand value="0"/>
    </processing>

    <junctions>
        <no-internal-links value="false"/>
        <no-turnarounds value="true"/>
        <junctions.corner-detail value="5"/>
        <junctions.limit-turn-speed value="5.50"/>
        <rectangular-lane-cut value="0"/>
    </junctions>

    <pedestrian>
        <walkingareas value="0"/>
    </pedestrian>

</neteditConfiguration>
-->

<net version="1.20" junctionCornerDetail="5" limitTurnSpeed="5.50" xmlns:xsi="http://www.w3.org/2001/XMLSchema-instance" xsi:noNamespaceSchemaLocation="http://sumo.dlr.de/xsd/net_file.xsd">

    <location netOffset="0.00,0.00" convBoundary="-200.00,-200.00,200.00,200.00" origBoundary="-10000000000.00,-10000000000.00,10000000000.00,10000000000.00" projParameter="!"/>

    <edge id=":Intersection_0" function="internal">
        <lane id=":Intersection_0_0" index="0" allow="bicycle" speed="8.60" length="8.22" width="2.00" shape="-7.40,21.10 -8.06,16.51 -9.90,13.43"/>
    </edge>
    <edge id=":Intersection_1" function="internal">
        <lane id=":Intersection_1_0" index="0" allow="bicycle" speed="13.89" length="42.20" width="2.00" shape="-7.40,21.10 -7.40,-21.10"/>
    </edge>
    <edge id=":Intersection_2" function="internal">
        <lane id=":Intersection_2_0" index="0" allow="bicycle" speed="13.89" length="24.94" width="2.00" shape="-7.40,21.10 -5.82,7.23 -1.07,-2.68"/>
    </edge>
    <edge id=":Intersection_3" function="internal">
        <lane id=":Intersection_3_0" index="0" disallow="pedestrian bicycle" speed="9.65" length="7.23" shape="-4.80,21.10 -5.62,15.37 -6.36,14.14"/>
    </edge>
    <edge id=":Intersection_4" function="internal">
        <lane id=":Intersection_4_0" index="0" disallow="pedestrian bicycle" speed="13.89" length="42.20" shape="-4.80,21.10 -4.80,-21.10"/>
        <lane id=":Intersection_4_1" index="1" disallow="pedestrian bicycle" speed="13.89" length="42.20" shape="-1.60,21.10 -1.60,-21.10"/>
    </edge>
    <edge id=":Intersection_6" function="internal">
        <lane id=":Intersection_6_0" index="0" disallow="pedestrian bicycle" speed="12.15" length="5.80" shape="-1.60,21.10 -0.89,15.34"/>
    </edge>
    <edge id=":Intersection_30" function="internal">
        <lane id=":Intersection_30_0" index="0" allow="bicycle" speed="8.60" length="8.71" width="2.00" shape="-9.90,13.43 -10.03,13.22 -13.31,11.26 -17.90,10.60"/>
    </edge>
    <edge id=":Intersection_31" function="internal">
        <lane id=":Intersection_31_0" index="0" allow="bicycle" speed="13.89" length="21.14" width="2.00" shape="-1.07,-2.68 6.83,-8.62 17.90,-10.60"/>
    </edge>
    <edge id=":Intersection_32" function="internal">
        <lane id=":Intersection_32_0" index="0" disallow="pedestrian bicycle" speed="9.65" length="13.90" shape="-6.36,14.14 -8.08,11.27 -12.17,8.82 -17.90,8.00"/>
    </edge>
    <edge id=":Intersection_33" function="internal">
        <lane id=":Intersection_33_0" index="0" disallow="pedestrian bicycle" speed="12.15" length="28.27" shape="-0.89,15.34 -0.38,11.17 3.28,4.08 9.37,-0.18 17.90,-1.60"/>
    </edge>
    <edge id=":Intersection_7" function="internal">
        <lane id=":Intersection_7_0" index="0" allow="bicycle" speed="8.60" length="8.22" width="2.00" shape="17.90,10.60 13.31,11.26 10.23,13.10"/>
    </edge>
    <edge id=":Intersection_8" function="internal">
        <lane id=":Intersection_8_0" index="0" allow="bicycle" speed="13.89" length="35.80" width="2.00" shape="17.90,10.60 -17.90,10.60"/>
    </edge>
    <edge id=":Intersection_9" function="internal">
        <lane id=":Intersection_9_0" index="0" allow="bicycle" speed="13.89" length="22.80" width="2.00" shape="17.90,10.60 6.83,8.62 -1.08,2.68 -1.79,1.17"/>
    </edge>
    <edge id=":Intersection_10" function="internal">
        <lane id=":Intersection_10_0" index="0" disallow="pedestrian bicycle" speed="9.65" length="7.23" shape="17.90,8.00 12.17,8.82 10.94,9.56"/>
    </edge>
    <edge id=":Intersection_11" function="internal">
        <lane id=":Intersection_11_0" index="0" disallow="pedestrian bicycle" speed="13.89" length="35.80" shape="17.90,8.00 -17.90,8.00"/>
        <lane id=":Intersection_11_1" index="1" disallow="pedestrian bicycle" speed="13.89" length="35.80" shape="17.90,4.80 -17.90,4.80"/>
        <lane id=":Intersection_11_2" index="2" disallow="pedestrian bicycle" speed="13.89" length="35.80" shape="17.90,1.60 -17.90,1.60"/>
    </edge>
    <edge id=":Intersection_14" function="internal">
        <lane id=":Intersection_14_0" index="0" disallow="pedestrian bicycle" speed="12.15" length="4.34" shape="17.90,1.60 13.62,0.89"/>
    </edge>
    <edge id=":Intersection_34" function="internal">
        <lane id=":Intersection_34_0" index="0" allow="bicycle" speed="8.60" length="8.71" width="2.00" shape="10.23,13.10 10.03,13.22 8.06,16.51 7.40,21.10"/>
    </edge>
    <edge id=":Intersection_35" function="internal">
        <lane id=":Intersection_35_0" index="0" allow="bicycle" speed="13.89" length="23.28" width="2.00" shape="-1.79,1.17 -5.82,-7.23 -7.40,-21.10"/>
    </edge>
    <edge id=":Intersection_36" function="internal">
        <lane id=":Intersection_36_0" index="0" disallow="pedestrian bicycle" speed="9.65" length="13.90" shape="10.94,9.56 8.07,11.27 5.62,15.37 4.80,21.10"/>
    </edge>
    <edge id=":Intersection_37" function="internal">
        <lane id=":Intersection_37_0" index="0" disallow="pedestrian bicycle" speed="12.15" length="29.73" shape="13.62,0.89 9.37,0.18 3.28,-4.07 -0.38,-11.17 -1.60,-21.10"/>
    </edge>
    <edge id=":Intersection_15" function="internal">
        <lane id=":Intersection_15_0" index="0" allow="bicycle" speed="8.60" length="8.22" width="2.00" shape="7.40,-21.10 8.06,-16.51 9.90,-13.43"/>
    </edge>
    <edge id=":Intersection_16" function="internal">
        <lane id=":Intersection_16_0" index="0" allow="bicycle" speed="13.89" length="42.20" width="2.00" shape="7.40,-21.10 7.40,21.10"/>
    </edge>
    <edge id=":Intersection_17" function="internal">
        <lane id=":Intersection_17_0" index="0" allow="bicycle" speed="13.89" length="24.94" width="2.00" shape="7.40,-21.10 5.82,-7.23 1.07,2.68"/>
    </edge>
    <edge id=":Intersection_18" function="internal">
        <lane id=":Intersection_18_0" index="0" disallow="pedestrian bicycle" speed="9.65" length="7.23" shape="4.80,-21.10 5.62,-15.37 6.36,-14.14"/>
    </edge>
    <edge id=":Intersection_19" function="internal">
        <lane id=":Intersection_19_0" index="0" disallow="pedestrian bicycle" speed="13.89" length="42.20" shape="4.80,-21.10 4.80,21.10"/>
        <lane id=":Intersection_19_1" index="1" disallow="pedestrian bicycle" speed="13.89" length="42.20" shape="1.60,-21.10 1.60,21.10"/>
    </edge>
    <edge id=":Intersection_21" function="internal">
        <lane id=":Intersection_21_0" index="0" disallow="pedestrian bicycle" speed="12.15" length="5.80" shape="1.60,-21.10 0.89,-15.34"/>
    </edge>
    <edge id=":Intersection_38" function="internal">
        <lane id=":Intersection_38_0" index="0" allow="bicycle" speed="8.60" length="8.71" width="2.00" shape="9.90,-13.43 10.03,-13.22 13.31,-11.26 17.90,-10.60"/>
    </edge>
    <edge id=":Intersection_39" function="internal">
        <lane id=":Intersection_39_0" index="0" allow="bicycle" speed="13.89" length="21.14" width="2.00" shape="1.07,2.68 -6.83,8.62 -17.90,10.60"/>
    </edge>
    <edge id=":Intersection_40" function="internal">
        <lane id=":Intersection_40_0" index="0" disallow="pedestrian bicycle" speed="9.65" length="13.90" shape="6.36,-14.14 8.08,-11.27 12.17,-8.82 17.90,-8.00"/>
    </edge>
    <edge id=":Intersection_41" function="internal">
        <lane id=":Intersection_41_0" index="0" disallow="pedestrian bicycle" speed="12.15" length="28.27" shape="0.89,-15.34 0.38,-11.17 -3.28,-4.08 -9.37,0.18 -17.90,1.60"/>
    </edge>
    <edge id=":Intersection_22" function="internal">
        <lane id=":Intersection_22_0" index="0" allow="bicycle" speed="8.60" length="8.22" width="2.00" shape="-17.90,-10.60 -13.31,-11.26 -10.23,-13.10"/>
    </edge>
    <edge id=":Intersection_23" function="internal">
        <lane id=":Intersection_23_0" index="0" allow="bicycle" speed="13.89" length="35.80" width="2.00" shape="-17.90,-10.60 17.90,-10.60"/>
    </edge>
    <edge id=":Intersection_24" function="internal">
        <lane id=":Intersection_24_0" index="0" allow="bicycle" speed="13.89" length="22.80" width="2.00" shape="-17.90,-10.60 -6.83,-8.62 1.08,-2.68 1.79,-1.17"/>
    </edge>
    <edge id=":Intersection_25" function="internal">
        <lane id=":Intersection_25_0" index="0" disallow="pedestrian bicycle" speed="9.65" length="7.23" shape="-17.90,-8.00 -12.17,-8.82 -10.94,-9.56"/>
    </edge>
    <edge id=":Intersection_26" function="internal">
        <lane id=":Intersection_26_0" index="0" disallow="pedestrian bicycle" speed="13.89" length="35.80" shape="-17.90,-8.00 17.90,-8.00"/>
        <lane id=":Intersection_26_1" index="1" disallow="pedestrian bicycle" speed="13.89" length="35.80" shape="-17.90,-4.80 17.90,-4.80"/>
        <lane id=":Intersection_26_2" index="2" disallow="pedestrian bicycle" speed="13.89" length="35.80" shape="-17.90,-1.60 17.90,-1.60"/>
    </edge>
    <edge id=":Intersection_29" function="internal">
        <lane id=":Intersection_29_0" index="0" disallow="pedestrian bicycle" speed="12.15" length="4.34" shape="-17.90,-1.60 -13.62,-0.89"/>
    </edge>
    <edge id=":Intersection_42" function="internal">
        <lane id=":Intersection_42_0" index="0" allow="bicycle" speed="8.60" length="8.71" width="2.00" shape="-10.23,-13.10 -10.03,-13.22 -8.06,-16.51 -7.40,-21.10"/>
    </edge>
    <edge id=":Intersection_43" function="internal">
        <lane id=":Intersection_43_0" index="0" allow="bicycle" speed="13.89" length="23.28" width="2.00" shape="1.79,-1.17 5.82,7.23 7.40,21.10"/>
    </edge>
    <edge id=":Intersection_44" function="internal">
        <lane id=":Intersection_44_0" index="0" disallow="pedestrian bicycle" speed="9.65" length="13.90" shape="-10.94,-9.56 -8.07,-11.27 -5.62,-15.37 -4.80,-21.10"/>
    </edge>
    <edge id=":Intersection_45" function="internal">
        <lane id=":Intersection_45_0" index="0" disallow="pedestrian bicycle" speed="12.15" length="29.73" shape="-13.62,-0.89 -9.37,-0.18 -3.28,4.07 0.38,11.17 1.60,21.10"/>
    </edge>
    <edge id=":Intersection_c0" function="crossing" crossingEdges="NB_North SB_North">
        <lane id=":Intersection_c0_0" index="0" allow="pedestrian" speed="2.78" length="16.80" width="8.00" shape="8.40,17.10 -8.40,17.10" outlineShape="8.40,21.10 -8.40,21.10 -8.66,18.20 -9.46,15.82 -10.78,13.97 -12.00,13.10 12.00,13.10 10.78,13.97 9.46,15.82 8.66,18.20"/>
    </edge>
    <edge id=":Intersection_c1" function="crossing" crossingEdges="EB_East WB_East">
        <lane id=":Intersection_c1_0" index="0" allow="pedestrian" speed="2.78" length="23.20" width="8.00" shape="13.90,-11.60 13.90,11.60" outlineShape="17.90,-11.70 17.90,11.70 15.00,11.86 12.62,12.66 10.78,13.97 9.90,15.20 9.90,-15.20 10.78,-13.97 12.62,-12.66 15.00,-11.86"/>
    </edge>
    <edge id=":Intersection_c2" function="crossing" crossingEdges="SB_South NB_South">
        <lane id=":Intersection_c2_0" index="0" allow="pedestrian" speed="2.78" length="16.80" width="8.00" shape="-8.40,-17.10 8.40,-17.10" outlineShape="-8.40,-21.10 8.40,-21.10 8.66,-18.20 9.46,-15.82 10.78,-13.97 12.00,-13.10 -12.00,-13.10 -10.78,-13.97 -9.46,-15.82 -8.66,-18.20"/>
    </edge>
    <edge id=":Intersection_c3" function="crossing" crossingEdges="WB_West EB_West">
        <lane id=":Intersection_c3_0" index="0" allow="pedestrian" speed="2.78" length="23.20" width="8.00" shape="-13.90,11.60 -13.90,-11.60" outlineShape="-17.90,11.70 -17.90,-11.70 -15.00,-11.86 -12.62,-12.66 -10.78,-13.97 -9.90,-15.20 -9.90,15.20 -10.78,13.97 -12.62,12.66 -15.00,11.86"/>
    </edge>
    <edge id=":Intersection_w0" function="walkingarea">
        <lane id=":Intersection_w0_0" index="0" allow="pedestrian" speed="2.78" length="7.68" width="8.00" shape="-17.90,11.60 -17.90,19.60 -16.40,21.10 -8.40,21.10 -8.66,18.20 -9.46,15.82 -10.78,13.97 -12.62,12.66 -15.00,11.86"/>
    </edge>
    <edge id=":Intersection_w1" function="walkingarea">
        <lane id=":Intersection_w1_0" index="0" allow="pedestrian" speed="2.78" length="7.68" width="8.00" shape="8.40,21.10 16.40,21.10 17.90,19.60 17.90,11.60 15.00,11.86 12.62,12.66 10.78,13.97 9.46,15.82 8.66,18.20"/>
    </edge>
    <edge id=":Intersection_w2" function="walkingarea">
        <lane id=":Intersection_w2_0" index="0" allow="pedestrian" speed="2.78" length="7.68" width="8.00" shape="17.90,-11.60 17.90,-19.60 16.40,-21.10 8.40,-21.10 8.66,-18.20 9.46,-15.82 10.78,-13.97 12.62,-12.66 15.00,-11.86"/>
    </edge>
    <edge id=":Intersection_w3" function="walkingarea">
        <lane id=":Intersection_w3_0" index="0" allow="pedestrian" speed="2.78" length="7.68" width="8.00" shape="-8.40,-21.10 -16.40,-21.10 -17.90,-19.60 -17.90,-11.60 -15.00,-11.86 -12.62,-12.66 -10.78,-13.97 -9.46,-15.82 -8.66,-18.20"/>
    </edge>

    <edge id="EB_East" from="Intersection" to="East_out" priority="-1">
        <lane id="EB_East_0" index="0" allow="pedestrian" speed="13.89" length="182.10" width="8.00" shape="17.90,-15.60 200.00,-15.60"/>
        <lane id="EB_East_1" index="1" allow="bicycle" speed="13.89" length="182.10" width="2.00" shape="17.90,-10.60 200.00,-10.60"/>
        <lane id="EB_East_2" index="2" disallow="pedestrian bicycle" speed="13.89" length="182.10" shape="17.90,-8.00 200.00,-8.00"/>
        <lane id="EB_East_3" index="3" disallow="pedestrian bicycle" speed="13.89" length="182.10" shape="17.90,-4.80 200.00,-4.80"/>
        <lane id="EB_East_4" index="4" disallow="pedestrian bicycle" speed="13.89" length="182.10" shape="17.90,-1.60 200.00,-1.60"/>
    </edge>
    <edge id="EB_West" from="West_in" to="Intersection" priority="-1">
        <lane id="EB_West_0" index="0" allow="pedestrian" speed="13.89" length="182.10" width="8.00" shape="-200.00,-15.60 -17.90,-15.60"/>
        <lane id="EB_West_1" index="1" allow="bicycle" speed="13.89" length="182.10" width="2.00" shape="-200.00,-10.60 -17.90,-10.60"/>
        <lane id="EB_West_2" index="2" disallow="pedestrian bicycle" speed="13.89" length="182.10" shape="-200.00,-8.00 -17.90,-8.00"/>
        <lane id="EB_West_3" index="3" disallow="pedestrian bicycle" speed="13.89" length="182.10" shape="-200.00,-4.80 -17.90,-4.80"/>
        <lane id="EB_West_4" index="4" disallow="pedestrian bicycle" speed="13.89" length="182.10" shape="-200.00,-1.60 -17.90,-1.60"/>
    </edge>
    <edge id="NB_North" from="Intersection" to="North_out" priority="-1">
        <lane id="NB_North_0" index="0" allow="pedestrian" speed="13.89" length="178.90" width="8.00" shape="12.40,21.10 12.40,200.00"/>
        <lane id="NB_North_1" index="1" allow="bicycle" speed="13.89" length="178.90" width="2.00" shape="7.40,21.10 7.40,200.00"/>
        <lane id="NB_North_2" index="2" disallow="pedestrian bicycle" speed="13.89" length="178.90" shape="4.80,21.10 4.80,200.00"/>
        <lane id="NB_North_3" index="3" disallow="pedestrian bicycle" speed="13.89" length="178.90" shape="1.60,21.10 1.60,200.00"/>
    </edge>
    <edge id="NB_South" from="South_in" to="Intersection" priority="-1">
        <lane id="NB_South_0" index="0" allow="pedestrian" speed="13.89" length="178.90" width="8.00" shape="12.40,-200.00 12.40,-21.10"/>
        <lane id="NB_South_1" index="1" allow="bicycle" speed="13.89" length="178.90" width="2.00" shape="7.40,-200.00 7.40,-21.10"/>
        <lane id="NB_South_2" index="2" disallow="pedestrian bicycle" speed="13.89" length="178.90" shape="4.80,-200.00 4.80,-21.10"/>
        <lane id="NB_South_3" index="3" disallow="pedestrian bicycle" speed="13.89" length="178.90" shape="1.60,-200.00 1.60,-21.10"/>
    </edge>
    <edge id="SB_North" from="North_in" to="Intersection" priority="-1">
        <lane id="SB_North_0" index="0" allow="pedestrian" speed="13.89" length="178.90" width="8.00" shape="-12.40,200.00 -12.40,21.10"/>
        <lane id="SB_North_1" index="1" allow="bicycle" speed="13.89" length="178.90" width="2.00" shape="-7.40,200.00 -7.40,21.10"/>
        <lane id="SB_North_2" index="2" disallow="pedestrian bicycle" speed="13.89" length="178.90" shape="-4.80,200.00 -4.80,21.10"/>
        <lane id="SB_North_3" index="3" disallow="pedestrian bicycle" speed="13.89" length="178.90" shape="-1.60,200.00 -1.60,21.10"/>
    </edge>
    <edge id="SB_South" from="Intersection" to="South_out" priority="-1">
        <lane id="SB_South_0" index="0" allow="pedestrian" speed="13.89" length="178.90" width="8.00" shape="-12.40,-21.10 -12.40,-200.00"/>
        <lane id="SB_South_1" index="1" allow="bicycle" speed="13.89" length="178.90" width="2.00" shape="-7.40,-21.10 -7.40,-200.00"/>
        <lane id="SB_South_2" index="2" disallow="pedestrian bicycle" speed="13.89" length="178.90" shape="-4.80,-21.10 -4.80,-200.00"/>
        <lane id="SB_South_3" index="3" disallow="pedestrian bicycle" speed="13.89" length="178.90" shape="-1.60,-21.10 -1.60,-200.00"/>
    </edge>
    <edge id="WB_East" from="East_in" to="Intersection" priority="-1">
        <lane id="WB_East_0" index="0" allow="pedestrian" speed="13.89" length="182.10" width="8.00" shape="200.00,15.60 17.90,15.60"/>
        <lane id="WB_East_1" index="1" allow="bicycle" speed="13.89" length="182.10" width="2.00" shape="200.00,10.60 17.90,10.60"/>
        <lane id="WB_East_2" index="2" disallow="pedestrian bicycle" speed="13.89" length="182.10" shape="200.00,8.00 17.90,8.00"/>
        <lane id="WB_East_3" index="3" disallow="pedestrian bicycle" speed="13.89" length="182.10" shape="200.00,4.80 17.90,4.80"/>
        <lane id="WB_East_4" index="4" disallow="pedestrian bicycle" speed="13.89" length="182.10" shape="200.00,1.60 17.90,1.60"/>
    </edge>
    <edge id="WB_West" from="Intersection" to="West_out" priority="-1">
        <lane id="WB_West_0" index="0" allow="pedestrian" speed="13.89" length="182.10" width="8.00" shape="-17.90,15.60 -200.00,15.60"/>
        <lane id="WB_West_1" index="1" allow="bicycle" speed="13.89" length="182.10" width="2.00" shape="-17.90,10.60 -200.00,10.60"/>
        <lane id="WB_West_2" index="2" disallow="pedestrian bicycle" speed="13.89" length="182.10" shape="-17.90,8.00 -200.00,8.00"/>
        <lane id="WB_West_3" index="3" disallow="pedestrian bicycle" speed="13.89" length="182.10" shape="-17.90,4.80 -200.00,4.80"/>
        <lane id="WB_West_4" index="4" disallow="pedestrian bicycle" speed="13.89" length="182.10" shape="-17.90,1.60 -200.00,1.60"/>
    </edge>

    <tlLogic id="J1" type="static" programID="0" offset="0">
        <phase duration="36" state="rrrrrrrgGggGGGgrrrrrrrgGggGGGgGrGr"/>
        <phase duration="5"  state="rrrrrrrgGggGGGgrrrrrrrgGggGGGgrrrr"/>
        <phase duration="3"  state="rrrrrrryyyyyyyyrrrrrrryyyyyyyyrrrr"/>
        <phase duration="1"  state="rrrrrrrrrrrrrrrrrrrrrrrrrrrrrrrrrr"/>
        <phase duration="36" state="gGggGGgrrrrrrrrgGggGGgrrrrrrrrrGrG"/>
        <phase duration="5"  state="gGggGGgrrrrrrrrgGggGGgrrrrrrrrrrrr"/>
        <phase duration="3"  state="yyyyyyyrrrrrrrryyyyyyyrrrrrrrrrrrr"/>
        <phase duration="1"  state="rrrrrrrrrrrrrrrrrrrrrrrrrrrrrrrrrr"/>
    </tlLogic>

    <junction id="East_in" type="dead_end" x="200.00" y="0.00" incLanes="" intLanes="" shape="200.00,0.00 200.00,19.60"/>
    <junction id="East_out" type="dead_end" x="200.00" y="0.00" incLanes="EB_East_0 EB_East_1 EB_East_2 EB_East_3 EB_East_4" intLanes="" shape="200.00,-19.60 200.00,0.00"/>
    <junction id="Intersection" type="traffic_light" x="0.00" y="0.00" incLanes="SB_North_0 SB_North_1 SB_North_2 SB_North_3 WB_East_0 WB_East_1 WB_East_2 WB_East_3 WB_East_4 NB_South_0 NB_South_1 NB_South_2 NB_South_3 EB_West_0 EB_West_1 EB_West_2 EB_West_3 EB_West_4 :Intersection_w1_0 :Intersection_w2_0 :Intersection_w3_0 :Intersection_w0_0" intLanes=":Intersection_30_0 :Intersection_1_0 :Intersection_31_0 :Intersection_32_0 :Intersection_4_0 :Intersection_4_1 :Intersection_33_0 :Intersection_34_0 :Intersection_8_0 :Intersection_35_0 :Intersection_36_0 :Intersection_11_0 :Intersection_11_1 :Intersection_11_2 :Intersection_37_0 :Intersection_38_0 :Intersection_16_0 :Intersection_39_0 :Intersection_40_0 :Intersection_19_0 :Intersection_19_1 :Intersection_41_0 :Intersection_42_0 :Intersection_23_0 :Intersection_43_0 :Intersection_44_0 :Intersection_26_0 :Intersection_26_1 :Intersection_26_2 :Intersection_45_0 :Intersection_c0_0 :Intersection_c1_0 :Intersection_c2_0 :Intersection_c3_0" shape="-16.40,21.10 16.40,21.10 16.57,20.27 16.77,19.97 17.07,19.77 17.44,19.64 17.90,19.60 17.90,-19.60 17.07,-19.77 16.78,-19.98 16.57,-20.27 16.44,-20.64 16.40,-21.10 -16.40,-21.10 -16.57,-20.27 -16.77,-19.97 -17.07,-19.77 -17.44,-19.64 -17.90,-19.60 -17.90,19.60 -17.07,19.77 -16.78,19.98 -16.57,20.27 -16.44,20.64">
        <request index="0"  response="1001000000000000000000000100000000" foes="1001000000000000100000000100000000" cont="1"/>
        <request index="1"  response="0101111111110000000011101100000000" foes="0101111111111000100011101100001000" cont="0"/>
        <request index="2"  response="0011111101100111011111101100110000" foes="0011111101100111111111101100111000" cont="1"/>
        <request index="3"  response="1001000000000000000011100100000110" foes="1001000000001000100011100100000110" cont="1"/>
        <request index="4"  response="0101111111100000000111101100000000" foes="0101111111101000100111101100000100" cont="0"/>
        <request index="5"  response="0101111111100000000111101100000000" foes="0101111111101000100111101100000100" cont="0"/>
        <request index="6"  response="0011111101000111010111101100000000" foes="0011111101000111010111101100000000" cont="1"/>
        <request index="7"  response="0011000000000000000000000000000000" foes="0011000001000000010000000000000000" cont="1"/>
        <request index="8"  response="1010000000000000100000000001001101" foes="1010100001000110110000010001111111" cont="0"/>
        <request index="9"  response="0110011110111000100011100001000100" foes="0110011111111110110011110001110110" cont="1"/>
        <request index="10" response="0011000000000000000000001100000000" foes="0011100001000110010000001100000000" cont="1"/>
        <request index="11" response="1010000000001000100000000001001100" foes="1010100001001110110000001001111110" cont="0"/>
        <request index="12" response="1010000000001000100000000001001100" foes="1010100001001110110000001001111110" cont="0"/>
        <request index="13" response="1010000000001000100000000001001100" foes="1010100001001110110000001001111110" cont="0"/>
        <request index="14" response="0110011110101000100000000001000100" foes="0110011110101110110000000001110100" cont="1"/>
        <request index="15" response="0110000000100000000000000000000000" foes="0110000000100000000000000000000100" cont="1"/>
        <request index="16" response="0101011101100000000111111110000000" foes="0101011101100001000111111111000100" cont="0"/>
        <request index="17" response="1100111101100110000111101100111111" foes="1100111101100111000111101100111111" cont="1"/>
        <request index="18" response="0110011100100000110000000000000000" foes="0110011100100000110000000001000100" cont="1"/>
        <request index="19" response="0101111101100000000111111100000000" foes="0101111101100000100111111101000100" cont="0"/>
        <request index="20" response="0101111101100000000111111100000000" foes="0101111101100000100111111101000100" cont="0"/>
        <request index="21" response="1100111101100000000111101000111010" foes="1100111101100000000111101000111010" cont="1"/>
        <request index="22" response="1100000000000000000000000000000000" foes="1100000000000000000000001000000010" cont="1"/>
        <request index="23" response="1010000000001001101000000000000100" foes="1010000010001111111100001000110110" cont="0"/>
        <request index="24" response="1001011100001000100011111111000100" foes="1001011110001110110011111111110110" cont="1"/>
        <request index="25" response="1100000001100000000000000000000000" foes="1100000001100000000100001000110010" cont="1"/>
        <request index="26" response="1010000000001001100000000001000100" foes="1010000001001111110100001001110110" cont="0"/>
        <request index="27" response="1010000000001001100000000001000100" foes="1010000001001111110100001001110110" cont="0"/>
        <request index="28" response="1010000000001001100000000001000100" foes="1010000001001111110100001001110110" cont="0"/>
        <request index="29" response="1001000000001000100011110101000100" foes="1001000000001110100011110101110110" cont="1"/>
        <request index="30" response="0000000000000000000000000000000000" foes="0000100001000110010000010011111111" cont="0"/>
        <request index="31" response="0000000000000000000000000000000000" foes="0000011100100001001111111111000100" cont="0"/>
        <request index="32" response="0000000000000000000000000000000000" foes="0000000010011111111100001000110010" cont="0"/>
        <request index="33" response="0000000000000000000000000000000000" foes="0000111111111000100011100100001001" cont="0"/>
    </junction>
    <junction id="North_in" type="dead_end" x="0.00" y="200.00" incLanes="" intLanes="" shape="0.00,200.00 -16.40,200.00"/>
    <junction id="North_out" type="dead_end" x="0.00" y="200.00" incLanes="NB_North_0 NB_North_1 NB_North_2 NB_North_3" intLanes="" shape="16.40,200.00 0.00,200.00"/>
    <junction id="South_in" type="dead_end" x="0.00" y="-200.00" incLanes="" intLanes="" shape="0.00,-200.00 16.40,-200.00"/>
    <junction id="South_out" type="dead_end" x="0.00" y="-200.00" incLanes="SB_South_0 SB_South_1 SB_South_2 SB_South_3" intLanes="" shape="-16.40,-200.00 0.00,-200.00"/>
    <junction id="West_in" type="dead_end" x="-200.00" y="0.00" incLanes="" intLanes="" shape="-200.00,0.00 -200.00,-19.60"/>
    <junction id="West_out" type="dead_end" x="-200.00" y="0.00" incLanes="WB_West_0 WB_West_1 WB_West_2 WB_West_3 WB_West_4" intLanes="" shape="-200.00,19.60 -200.00,0.00"/>

    <junction id=":Intersection_30_0" type="internal" x="-9.90" y="13.43" incLanes=":Intersection_0_0" intLanes=":Intersection_8_0 :Intersection_11_0 :Intersection_11_1 :Intersection_11_2 :Intersection_17_0 :Intersection_21_0 :Intersection_c0_0 :Intersection_c3_0"/>
    <junction id=":Intersection_31_0" type="internal" x="-1.07" y="-2.68" incLanes=":Intersection_2_0 NB_South_1 NB_South_2 NB_South_3" intLanes=":Intersection_4_0 :Intersection_4_1 :Intersection_8_0 :Intersection_9_0 :Intersection_11_0 :Intersection_11_1 :Intersection_11_2 :Intersection_14_0 :Intersection_15_0 :Intersection_16_0 :Intersection_17_0 :Intersection_18_0 :Intersection_19_0 :Intersection_19_1 :Intersection_23_0 :Intersection_24_0 :Intersection_26_0 :Intersection_26_1 :Intersection_26_2 :Intersection_29_0 :Intersection_c0_0 :Intersection_c1_0"/>
    <junction id=":Intersection_32_0" type="internal" x="-6.36" y="14.14" incLanes=":Intersection_3_0 SB_North_1" intLanes=":Intersection_1_0 :Intersection_2_0 :Intersection_8_0 :Intersection_11_0 :Intersection_11_1 :Intersection_11_2 :Intersection_17_0 :Intersection_21_0 :Intersection_c0_0 :Intersection_c3_0"/>
    <junction id=":Intersection_33_0" type="internal" x="-0.89" y="15.34" incLanes=":Intersection_6_0 NB_South_1 NB_South_2 NB_South_3" intLanes=":Intersection_8_0 :Intersection_9_0 :Intersection_11_0 :Intersection_11_1 :Intersection_11_2 :Intersection_14_0 :Intersection_15_0 :Intersection_16_0 :Intersection_18_0 :Intersection_19_0 :Intersection_19_1 :Intersection_23_0 :Intersection_24_0 :Intersection_26_0 :Intersection_26_1 :Intersection_26_2 :Intersection_29_0 :Intersection_c0_0 :Intersection_c1_0"/>
    <junction id=":Intersection_34_0" type="internal" x="10.23" y="13.10" incLanes=":Intersection_7_0" intLanes=":Intersection_16_0 :Intersection_19_0 :Intersection_19_1 :Intersection_24_0 :Intersection_29_0 :Intersection_c0_0 :Intersection_c1_0"/>
    <junction id=":Intersection_35_0" type="internal" x="-1.79" y="1.17" incLanes=":Intersection_9_0 EB_West_1 EB_West_2 EB_West_3 EB_West_4" intLanes=":Intersection_1_0 :Intersection_2_0 :Intersection_4_0 :Intersection_4_1 :Intersection_6_0 :Intersection_11_0 :Intersection_11_1 :Intersection_11_2 :Intersection_16_0 :Intersection_17_0 :Intersection_19_0 :Intersection_19_1 :Intersection_21_0 :Intersection_22_0 :Intersection_23_0 :Intersection_24_0 :Intersection_25_0 :Intersection_26_0 :Intersection_26_1 :Intersection_26_2 :Intersection_c1_0 :Intersection_c2_0"/>
    <junction id=":Intersection_36_0" type="internal" x="10.94" y="9.56" incLanes=":Intersection_10_0 WB_East_1" intLanes=":Intersection_8_0 :Intersection_9_0 :Intersection_16_0 :Intersection_19_0 :Intersection_19_1 :Intersection_24_0 :Intersection_29_0 :Intersection_c0_0 :Intersection_c1_0"/>