<?xml version="1.0" ?>
<trips>
  <trip id="1" depart="1.8" from="24521704#3.24" to="27878350" departLane="random" departSpeed="34.490190473929154"/>
  <trip id="2" depart="2.4" from="124471132" to="380664935" departLane="random" departSpeed="33.8625605562468"/>
  <trip id="3" depart="3.3" from="124471132" to="27862401" departLane="random" departSpeed="23.31892813848916"/>
  <trip id="4" depart="3.6" from="124471132" to="27862401" departLane="random" departSpeed="22.06768623290429"/>
  <trip id="5" depart="4.3" from="124471132" to="380664935" departLane="random" departSpeed="31.460881002468"/>
  <trip id="6" depart="4.5" from="124471132" to="907236679" departLane="random" departSpeed="34.14470299"/>
  <trip id="7" depart="4.6" from="124471132" to="907236679" departLane="random" departSpeed="12.66182666"/>
  <trip id="8" depart="5.0" from="24521704#3.24" to="907236679" departLane="random" departSpeed="18.75138274938237"/>
  <trip id="9" depart="5.8" from="124471132" to="380664935" departLane="random" departSpeed="14.830074822390053"/>
  <trip id="10" depart="5.8" from="124471132" to="907236679" departLane="random" departSpeed="16.544802124578638"/>
  <trip id="11" depart="5.9" from="124471132" to="907236679" departLane="random" departSpeed="34.490190473929154"/>
  <trip id="12" depart="6.7" from="124471132" to="24521700#0" departLane="random" departSpeed="32.56367086631645"/>
  <trip id="13" depart="6.8" from="124471132" to="907236679" departLane="random" departSpeed="34.50933492"/>
  <trip id="14" depart="7.7" from="124471132" to="380664935" departLane="random" departSpeed="23.6624366"/>
  <trip id="15" depart="9.1" from="124471132" to="380664935" departLane="random" departSpeed="9.803738214"/>
  <trip id="16" depart="9.6" from="124471132" to="380664935" departLane="random" departSpeed="22.06768623290429"/>
  <trip id="17" depart="9.9" from="124471132" to="380664935" departLane="random" departSpeed="32.15299253689358"/>
  <trip id="18" depart="10.1" from="124471132" to="907236679" departLane="random" departSpeed="29.49117621909319"/>
  <trip id="19" depart="10.9" from="124471132" to="380664935" departLane="random" departSpeed="31.49735004570736"/>
  <trip id="20" depart="11.0" from="24521704#3.24" to="380664935" departLane="random" departSpeed="12.321570253476748"/>
  <trip id="21" depart="11.1" from="24521704#3.24" to="907236679" departLane="random" departSpeed="33.53924371262173"/>
  <trip id="22" depart="11.6" from="124471132" to="24306156" departLane="random" departSpeed="22.37443176870916"/>
  <trip id="23" depart="11.8" from="124471132" to="380664935" departLane="random" departSpeed="27.26069994"/>
  <trip id="24" depart="11.9" from="124471132" to="907236679" departLane="random" departSpeed="30.23978610533909"/>
  <trip id="25" depart="12.0" from="124471132" to="907236679" departLane="random" departSpeed="31.49735004570736"/>
  <trip id="26" depart="12.3" from="124471132" to="27878350" departLane="random" departSpeed="31.7273225"/>
  <trip id="27" depart="12.9" from="124471132" to="380664935" departLane="random" departSpeed="8.970869532042657"/>
  <trip id="28" depart="13.4" from="124471132" to="24306156" departLane="random" departSpeed="29.49117621909319"/>
  <trip id="29" depart="14.4" from="124471132" to="380664935" departLane="random" departSpeed="12.9583351651852"/>
  <trip id="30" depart="15.1" from="124471132" to="380664935" departLane="random" departSpeed="23.4468405411239"/>
  <trip id="31" depart="15.9" from="124471132" to="380664935" departLane="random" departSpeed="27.850429404665"/>
  <trip id="32" depart="16.6" from="124471132" to="907236679" departLane="random" departSpeed="12.957414769971145"/>
  <trip id="33" depart="17.0" from="24521704#3.24" to="380664935" departLane="random" departSpeed="30.23978610533909"/>
  <trip id="34" depart="17.7" from="124471132" to="380664935" departLane="random" departSpeed="25.393931089433647"/>
  <trip id="35" depart="19.7" from="124471132" to="907236679" departLane="random" departSpeed="24.124616030582253"/>
  <trip id="36" depart="19.8" from="24521704#3.24" to="27862401" departLane="random" departSpeed="31.85295808200001"/>
  <trip id="37" depart="20.1" from="124471132" to="27862401" departLane="random" departSpeed="28.846495342809515"/>
  <trip id="38" depart="21.3" from="24521704#3.24" to="27878350" departLane="random" departSpeed="20.86333104"/>
  <trip id="39" depart="22.3" from="124471132" to="380664935" departLane="random" departSpeed="31.19961241324995"/>
  <trip id="40" depart="22.4" from="124471132" to="380664935" departLane="random" departSpeed="32.91436593725302"/>
  <trip id="41" depart="22.6" from="24521704#3.24" to="907236679" departLane="random" departSpeed="34.6169800758097"/>
  <trip id="42" depart="22.6" from="124471132" to="380664935" departLane="random" departSpeed="16.544802124578638"/>
  <trip id="43" depart="24.9" from="124471132" to="27862401" departLane="random" departSpeed="25.12781362122456"/>
  <trip id="44" depart="25.6" from="24521704#3.24" to="380664935" departLane="random" departSpeed="16.544802124578638"/>
  <trip id="45" depart="25.7" from="124471132" to="907236679" departLane="random" departSpeed="28.15786559355022"/>
  <trip id="46" depart="26.0" from="124471132" to="27878350" departLane="random" departSpeed="34.78017891220951"/>
  <trip id="47" depart="26.6" from="124471132" to="380664935" departLane="random" departSpeed="33.88825374753824"/>
  <trip id="48" depart="27.0" from="24521704#3.24" to="907236679" departLane="random" departSpeed="33.59126233488732"/>
  <trip id="49" depart="27.7" from="24521704#3.24" to="27878350" departLane="random" departSpeed="31.85295808200001"/>
  <trip id="50" depart="27.8" from="124471132" to="907236679" departLane="random" departSpeed="12.9583351651852"/>
  <trip id="51" depart="28.0" from="124471132" to="907236679" departLane="random" departSpeed="21.413310323486407"/>
  <trip id="52" depart="28.1" from="124471132" to="907236679" departLane="random" departSpeed="31.7273225"/>
  <trip id="53" depart="28.4" from="124471132" to="24306156" departLane="random" departSpeed="4.770037456645731"/>
  <trip id="54" depart="28.4" from="124471132" to="24521700#0" departLane="random" departSpeed="33.99263238874535"/>
  <trip id="55" depart="28.9" from="124471132" to="380664935" departLane="random" departSpeed="31.460881002468"/>
  <trip id="56" depart="28.9" from="124471132" to="27878350" departLane="random" departSpeed="11.857432568450964"/>
  <trip id="57" depart="29.2" from="124471132" to="24521700#0" departLane="random" departSpeed="20.2512139776802"/>
  <trip id="58" depart="29.5" from="124471132" to="24521700#0" departLane="random" departSpeed="34.34100371"/>
  <trip id="59" depart="29.9" from="124471132" to="907236679" departLane="random" departSpeed="18.87903877207733"/>
  <trip id="60" depart="31.4" from="24521704#3.24" to="27862401" departLane="random" departSpeed="23.6624366"/>
  <trip id="61" depart="31.9" from="124471132" to="24306156" departLane="random" departSpeed="15.908357668625758"/>
  <trip id="62" depart="32.2" from="124471132" to="907236679" departLane="random" departSpeed="35.4222410112534"/>
  <trip id="63" depart="32.9" from="24521704#3.24" to="907236679" departLane="random" departSpeed="31.460881002468"/>
  <trip id="64" depart="33.5" from="124471132" to="907236679" departLane="random" departSpeed="8.970869532042657"/>
  <trip id="65" depart="33.6" from="124471132" to="907236679" departLane="random" departSpeed="28.15786559355022"/>
  <trip id="66" depart="34.2" from="124471132" to="380664935" departLane="random" departSpeed="26.689085055536"/>
  <trip id="67" depart="35.4" from="124471132" to="907236679" departLane="random" departSpeed="35.4222410112534"/>
  <trip id="68" depart="35.5" from="124471132" to="907236679" departLane="random" departSpeed="23.4468405411239"/>
  <trip id="69" depart="35.8" from="24521704#3.24" to="380664935" departLane="random" departSpeed="35.12486718879205"/>
  <trip id="70" depart="36.3" from="124471132" to="380664935" departLane="random" departSpeed="23.4468405411239"/>
  <trip id="71" depart="38.1" from="124471132" to="380664935" departLane="random" departSpeed="28.3355388"/>
  <trip id="72" depart="38.2" from="124471132" to="380664935" departLane="random" departSpeed="22.37443176870916"/>
  <trip id="73" depart="39.7" from="124471132" to="380664935" departLane="random" departSpeed="33.81116899861578"/>
  <trip id="74" depart="40.0" from="124471132" to="907236679" departLane="random" departSpeed="18.87903877207733"/>
  <trip id="75" depart="41.3" from="124471132" to="380664935" departLane="random" departSpeed="31.56189316"/>
  <trip id="76" depart="42.5" from="124471132" to="24306156" departLane="random" departSpeed="33.42811646463369"/>
  <trip id="77" depart="43.0" from="124471132" to="380664935" departLane="random" departSpeed="25.393931089433647"/>
  <trip id="78" depart="43.2" from="124471132" to="907236679" departLane="random" departSpeed="31.19961241324995"/>
  <trip id="79" depart="44.8" from="124471132" to="380664935" departLane="random" departSpeed="34.89404649432115"/>
  <trip id="80" depart="45.0" from="124471132" to="380664935" departLane="random" departSpeed="27.94589325680829"/>
  <trip id="81" depart="45.3" from="24521704#3.24" to="24521700#0" departLane="random" departSpeed="26.22049255249952"/>
  <trip id="82" depart="45.9" from="124471132" to="27862401" departLane="random" departSpeed="33.88825374753824"/>
  <trip id="83" depart="46.4" from="124471132" to="907236679" departLane="random" departSpeed="7.267271502"/>
  <trip id="84" depart="46.7" from="124471132" to="907236679" departLane="random" departSpeed="30.082117020456582"/>
  <trip id="85" depart="46.9" from="124471132" to="380664935" departLane="random" departSpeed="32.29074583345481"/>
  <trip id="86" depart="47.3" from="124471132" to="24521700#0" departLane="random" departSpeed="7.208008305190351"/>
  <trip id="87" depart="47.4" from="124471132" to="27862401" departLane="random" departSpeed="35.4222410112534"/>
  <trip id="88" depart="48.8" from="124471132" to="380664935" departLane="random" departSpeed="18.81896409"/>
  <trip id="89" depart="49.2" from="124471132" to="27862401" departLane="random" departSpeed="6.288929845450441"/>
  <trip id="90" depart="51.0" from="124471132" to="907236679" departLane="random" departSpeed="15.908357668625758"/>
  <trip id="91" depart="51.4" from="124471132" to="27878350" departLane="random" departSpeed="18.75138274938237"/>
  <trip id="92" depart="53.3" from="124471132" to="907236679" departLane="random" departSpeed="28.664708585172782"/>
  <trip id="93" depart="53.4" from="124471132" to="907236679" departLane="random" departSpeed="26.689085055536"/>
  <trip id="94" depart="55.0" from="124471132" to="907236679" departLane="random" departSpeed="34.44736131121993"/>
  <trip id="95" depart="55.5" from="124471132" to="380664935" departLane="random" departSpeed="16.808334884580496"/>
  <trip id="96" depart="56.6" from="124471132" to="907236679" departLane="random" departSpeed="16.544802124578638"/>
  <trip id="97" depart="57.0" from="124471132" to="380664935" departLane="random" departSpeed="31.49735004570736"/>
  <trip id="98" depart="57.2" from="124471132" to="907236679" departLane="random" departSpeed="33.99263238874535"/>
  <trip id="99" depart="57.6" from="124471132" to="380664935" departLane="random" departSpeed="20.86333104"/>
  <trip id="100" depart="57.9" from="124471132" to="27878350" departLane="random" departSpeed="34.490190473929154"/>
  <trip id="101" depart="58.5" from="24521704#3.24" to="380664935" departLane="random" departSpeed="27.459013514345543"/>
  <trip id="102" depart="59.2" from="24521704#3.24" to="27878350" departLane="random" departSpeed="31.19961241324995"/>
  <trip id="103" depart="59.4" from="124471132" to="907236679" departLane="random" departSpeed="18.87903877207733"/>
  <trip id="104" depart="59.9" from="124471132" to="907236679" departLane="random" departSpeed="20.2512139776802"/>
  <trip id="105" depart="59.9" from="124471132" to="380664935" departLane="random" departSpeed="8.893738796642095"/>
  <trip id="106" depart="60.0" from="124471132" to="907236679" departLane="random" departSpeed="32.56367086631645"/>
  <trip id="107" depart="60.0" from="124471132" to="380664935" departLane="random" departSpeed="33.88825374753824"/>
  <trip id="108" depart="60.4" from="124471132" to="907236679" departLane="random" departSpeed="34.34100371"/>
  <trip id="109" depart="61.0" from="24521704#3.24" to="27862401" departLane="random" departSpeed="16.544802124578638"/>
  <trip id="110" depart="61.4" from="24521704#3.24" to="380664935" departLane="random" departSpeed="31.307845253519325"/>
  <trip id="111" depart="62.0" from="24521704#3.24" to="380664935" departLane="random" departSpeed="33.88825374753824"/>
  <trip id="112" depart="62.7" from="124471132" to="27862401" departLane="random" departSpeed="22.37443176870916"/>
  <trip id="113" depart="64.7" from="124471132" to="380664935" departLane="random" departSpeed="34.490190473929154"/>
  <trip id="114" depart="66.1" from="24521704#3.24" to="907236679" departLane="random" departSpeed="4.322596599030778"/>
  <trip id="115" depart="67.2" from="124471132" to="380664935" departLane="random" departSpeed="34.86475836065382"/>
  <trip id="116" depart="67.4" from="124471132" to="907236679" departLane="random" departSpeed="31.307845253519325"/>
  <trip id="117" depart="67.8" from="124471132" to="907236679" departLane="random" departSpeed="34.50933492"/>
  <trip id="118" depart="69.8" from="124471132" to="907236679" departLane="random" departSpeed="20.2512139776802"/>
  <trip id="119" depart="70.3" from="124471132" to="380664935" departLane="random" departSpeed="6.288929845450441"/>
  <trip id="120" depart="71.2" from="124471132" to="380664935" departLane="random" departSpeed="31.11508405"/>
  <trip id="121" depart="71.4" from="124471132" to="380664935" departLane="random" departSpeed="18.81896409"/>
  <trip id="122" depart="72.1" from="124471132" to="907236679" departLane="random" departSpeed="34.10421680056501"/>
  <trip id="123" depart="72.9" from="124471132" to="907236679" departLane="random" departSpeed="33.8468595671832"/>
  <trip id="124" depart="73.3" from="124471132" to="907236679" departLane="random" departSpeed="31.49735004570736"/>
  <trip id="125" depart="76.0" from="124471132" to="24521700#0" departLane="random" departSpeed="31.49735004570736"/>
  <trip id="126" depart="77.7" from="124471132" to="380664935" departLane="random" departSpeed="33.87827552413766"/>
  <trip id="127" depart="77.8" from="124471132" to="907236679" departLane="random" departSpeed="34.50933492"/>
  <trip id="128" depart="78.2" from="24521704#3.24" to="907236679" departLane="random" departSpeed="31.85295808200001"/>
  <trip id="129" depart="80.2" from="124471132" to="380664935" departLane="random" departSpeed="34.32006377530932"/>
  <trip id="130" depart="80.6" from="124471132" to="380664935" departLane="random" departSpeed="26.689085055536"/>
  <trip id="131" depart="80.9" from="124471132" to="380664935" departLane="random" departSpeed="18.87903877207733"/>
  <trip id="132" depart="81.0" from="124471132" to="380664935" departLane="random" departSpeed="31.56189316"/>
  <trip id="133" depart="81.8" from="124471132" to="907236679" departLane="random" departSpeed="34.170367851185595"/>
  <trip id="134" depart="82.2" from="124471132" to="907236679" departLane="random" departSpeed="18.87903877207733"/>
  <trip id="135" depart="83.1" from="124471132" to="24521700#0" departLane="random" departSpeed="8.970869532042657"/>
  <trip id="136" depart="83.4" from="24521704#3.24" to="380664935" departLane="random" departSpeed="34.44736131121993"/>
  <trip id="137" depart="83.6" from="124471132" to="380664935" departLane="random" departSpeed="26.689085055536"/>
  <trip id="138" depart="83.8" from="124471132" to="907236679" departLane="random" departSpeed="34.170367851185595"/>
  <trip id="139" depart="85.7" from="124471132" to="380664935" departLane="random" departSpeed="22.37443176870916"/>
  <trip id="140" depart="86.2" from="124471132" to="907236679" departLane="random" departSpeed="15.908357668625758"/>
  <trip id="141" depart="86.2" from="124471132" to="380664935" departLane="random" departSpeed="20.2512139776802"/>
  <trip id="142" depart="86.4" from="124471132" to="380664935" departLane="random" departSpeed="34.89404649432115"/>
  <trip id="143" depart="86.6" from="124471132" to="907236679" departLane="random" departSpeed="27.04474311145533"/>
  <trip id="144" depart="86.8" from="24521704#3.24" to="27878350" departLane="random" departSpeed="11.857432568450964"/>
  <trip id="145" depart="87.0" from="124471132" to="907236679" departLane="random" departSpeed="34.11596117"/>
  <trip id="146" depart="88.0" from="24521704#3.24" to="27862401" departLane="random" departSpeed="22.06768623290429"/>
  <trip id="147" depart="89.4" from="124471132" to="380664935" departLane="random" departSpeed="12.9583351651852"/>
  <trip id="148" depart="89.4" from="124471132" to="907236679" departLane="random" departSpeed="21.413310323486407"/>
  <trip id="149" depart="92.3" from="124471132" to="907236679" departLane="random" departSpeed="34.490190473929154"/>
  <trip id="150" depart="92.4" from="124471132" to="380664935" departLane="random" departSpeed="34.10421680056501"/>
  <trip id="151" depart="92.8" from="24521704#3.24" to="380664935" departLane="random" departSpeed="28.846495342809515"/>
  <trip id="152" depart="93.2" from="124471132" to="907236679" departLane="random" departSpeed="34.78547759343283"/>
  <trip id="153" depart="93.7" from="124471132" to="380664935" departLane="random" departSpeed="7.208008305190351"/>
  <trip id="154" depart="93.8" from="24521704#3.24" to="27862401" departLane="random" departSpeed="22.37443176870916"/>
  <trip id="155" depart="93.9" from="124471132" to="24306156" departLane="random" departSpeed="33.82249778431291"/>
  <trip id="156" depart="95.0" from="124471132" to="24306156" departLane="random" departSpeed="16.544802124578638"/>
  <trip id="157" depart="95.3" from="124471132" to="380664935" departLane="random" departSpeed="34.86475836065382"/>
  <trip id="158" depart="95.4" from="24521704#3.24" to="27878350" departLane="random" departSpeed="34.6169800758097"/>
  <trip id="159" depart="95.6" from="24521704#3.24" to="907236679" departLane="random" departSpeed="34.89058609"/>
  <trip id="160" depart="96.2" from="124471132" to="907236679" departLane="random" departSpeed="31.460881002468"/>
  <trip id="161" depart="97.0" from="24521704#3.24" to="907236679" departLane="random" departSpeed="33.254265863707744"/>
  <trip id="162" depart="97.3" from="124471132" to="380664935" departLane="random" departSpeed="34.0327329"/>
  <trip id="163" depart="99.7" from="124471132" to="27878350" departLane="random" departSpeed="24.4676654531604"/>
  <trip id="164" depart="99.8" from="124471132" to="380664935" departLane="random" departSpeed="26.689085055536"/>
  <trip id="165" depart="101.9" from="124471132" to="907236679" departLane="random" departSpeed="33.907135088580524"/>
  <trip id="166" depart="102.4" from="124471132" to="907236679" departLane="random" departSpeed="21.413310323486407"/>
  <trip id="167" depart="102.8" from="124471132" to="907236679" departLane="random" departSpeed="12.291408926934988"/>
  <trip id="168" depart="103.2" from="124471132" to="380664935" departLane="random" departSpeed="34.490190473929154"/>
  <trip id="169" depart="104.2" from="124471132" to="907236679" departLane="random" departSpeed="33.88825374753824"/>
  <trip id="170" depart="104.5" from="124471132" to="380664935" departLane="random" departSpeed="12.957414769971145"/>
  <trip id="171" depart="105.0" from="124471132" to="907236679" departLane="random" departSpeed="6.288929845450441"/>
  <trip id="172" depart="105.4" from="124471132" to="380664935" departLane="random" departSpeed="29.46205863667712"/>
  <trip id="173" depart="106.7" from="124471132" to="380664935" departLane="random" departSpeed="31.460881002468"/>
  <trip id="174" depart="107.1" from="124471132" to="380664935" departLane="random" departSpeed="23.275679709212543"/>
  <trip id="175" depart="107.2" from="124471132" to="907236679" departLane="random" departSpeed="28.15786559355022"/>
  <trip id="176" depart="108.1" from="124471132" to="907236679" departLane="random" departSpeed="31.460881002468"/>
  <trip id="177" depart="108.3" from="124471132" to="380664935" departLane="random" departSpeed="7.565659494386214"/>
  <trip id="178" depart="109.0" from="124471132" to="27862401" departLane="random" departSpeed="9.51510975867069"/>
  <trip id="179" depart="109.8" from="24521704#3.24" to="27878350" departLane="random" departSpeed="12.321570253476748"/>
  <trip id="180" depart="110.1" from="124471132" to="380664935" departLane="random" departSpeed="34.6169800758097"/>
  <trip id="181" depart="111.5" from="124471132" to="907236679" departLane="random" departSpeed="34.170367851185595"/>
  <trip id="182" depart="112.7" from="124471132" to="24306156" departLane="random" departSpeed="18.75138274938237"/>
  <trip id="183" depart="112.9" from="124471132" to="380664935" departLane="random" departSpeed="16.544802124578638"/>
  <trip id="184" depart="113.0" from="124471132" to="380664935" departLane="random" departSpeed="33.81116899861578"/>
  <trip id="185" depart="114.2" from="124471132" to="380664935" departLane="random" departSpeed="12.957414769971145"/>
  <trip id="186" depart="114.3" from="124471132" to="380664935" departLane="random" departSpeed="28.15786559355022"/>
  <trip id="187" depart="114.9" from="124471132" to="380664935" departLane="random" departSpeed="19.0470835916868"/>
  <trip id="188" depart="116.4" from="124471132" to="907236679" departLane="random" departSpeed="34.10421680056501"/>
  <trip id="189" depart="116.9" from="124471132" to="907236679" departLane="random" departSpeed="31.224557160337245"/>
  <trip id="190" depart="117.0" from="124471132" to="907236679" departLane="random" departSpeed="27.44399857447493"/>
  <trip id="191" depart="117.5" from="124471132" to="907236679" departLane="random" departSpeed="33.81116899861578"/>
  <trip id="192" depart="117.6" from="124471132" to="380664935" departLane="random" departSpeed="6.924410562396637"/>
  <trip id="193" depart="118.5" from="124471132" to="380664935" departLane="random" departSpeed="16.544802124578638"/>
  <trip id="194" depart="118.7" from="124471132" to="907236679" departLane="random" departSpeed="34.490190473929154"/>
  <trip id="195" depart="118.8" from="124471132" to="907236679" departLane="random" departSpeed="20.2512139776802"/>
  <trip id="196" depart="122.8" from="124471132" to="907236679" departLane="random" departSpeed="9.51510975867069"/>
  <trip id="197" depart="123.0" from="124471132" to="907236679" departLane="random" departSpeed="34.78017891220951"/>
  <trip id="198" depart="123.3" from="124471132" to="380664935" departLane="random" departSpeed="32.15299253689358"/>
  <trip id="199" depart="123.4" from="124471132" to="24521700#0" departLane="random" departSpeed="16.544802124578638"/>
  <trip id="200" depart="124.1" from="124471132" to="907236679" departLane="random" departSpeed="32.29103127611514"/>
  <trip id="201" depart="124.1" from="124471132" to="380664935" departLane="random" departSpeed="32.29074583345481"/>
  <trip id="202" depart="124.9" from="24521704#3.24" to="907236679" departLane="random" departSpeed="34.488001974930974"/>
  <trip id="203" depart="125.4" from="24521704#3.24" to="907236679" departLane="random" departSpeed="9.51510975867069"/>
  <trip id="204" depart="127.1" from="124471132" to="907236679" departLane="random" departSpeed="34.358737476047615"/>
  <trip id="205" depart="127.2" from="124471132" to="380664935" departLane="random" departSpeed="18.87903877207733"/>
  <trip id="206" depart="127.7" from="124471132" to="380664935" departLane="random" departSpeed="28.26108588084233"/>
  <trip id="207" depart="129.8" from="124471132" to="907236679" departLane="random" departSpeed="22.37443176870916"/>
  <trip id="208" depart="130.4" from="124471132" to="380664935" departLane="random" departSpeed="29.49117621909319"/>
  <trip id="209" depart="130.7" from="24521704#3.24" to="24521700#0" departLane="random" departSpeed="30.39674295"/>
  <trip id="210" depart="133.0" from="124471132" to="380664935" departLane="random" departSpeed="25.58651400232842"/>
  <trip id="211" depart="134.0" from="124471132" to="907236679" departLane="random" departSpeed="33.05483020426598"/>
  <trip id="212" depart="134.0" from="24521704#3.24" to="27878350" departLane="random" departSpeed="4.322596599030778"/>
  <trip id="213" depart="134.2" from="124471132" to="907236679" departLane="random" departSpeed="28.25888583"/>
  <trip id="214" depart="134.4" from="24521704#3.24" to="907236679" departLane="random" departSpeed="29.07709189351034"/>
  <trip id="215" depart="134.4" from="124471132" to="907236679" departLane="random" departSpeed="33.61554436424756"/>
  <trip id="216" depart="134.8" from="124471132" to="380664935" departLane="random" departSpeed="27.459013514345543"/>
  <trip id="217" depart="134.8" from="124471132" to="27878350" departLane="random" departSpeed="25.393931089433647"/>
  <trip id="218" depart="135.5" from="124471132" to="907236679" departLane="random" departSpeed="28.26108588084233"/>
  <trip id="219" depart="136.4" from="124471132" to="907236679" departLane="random" departSpeed="29.49117621909319"/>
  <trip id="220" depart="136.6" from="24521704#3.24" to="907236679" departLane="random" departSpeed="12.321570253476748"/>
  <trip id="221" depart="136.7" from="124471132" to="380664935" departLane="random" departSpeed="34.170367851185595"/>
  <trip id="222" depart="137.4" from="124471132" to="907236679" departLane="random" departSpeed="34.6169800758097"/>
  <trip id="223" depart="137.8" from="124471132" to="380664935" departLane="random" departSpeed="34.488001974930974"/>
  <trip id="224" depart="138.0" from="124471132" to="27862401" departLane="random" departSpeed="20.2512139776802"/>
  <trip id="225" depart="139.2" from="24521704#3.24" to="380664935" departLane="random" departSpeed="32.15299253689358"/>
  <trip id="226" depart="140.7" from="124471132" to="380664935" departLane="random" departSpeed="30.23922768411074"/>
  <trip id="227" depart="141.2" from="124471132" to="907236679" departLane="random" departSpeed="31.19961241324995"/>
  <trip id="228" depart="141.8" from="124471132" to="24306156" departLane="random" departSpeed="34.170367851185595"/>
  <trip id="229" depart="143.2" from="124471132" to="907236679" departLane="random" departSpeed="12.321570253476748"/>
  <trip id="230" depart="144.5" from="124471132" to="380664935" departLane="random" departSpeed="34.170367851185595"/>
  <trip id="231" depart="144.5" from="24521704#3.24" to="380664935" departLane="random" departSpeed="18.87903877207733"/>
  <trip id="232" depart="144.9" from="124471132" to="907236679" departLane="random" departSpeed="34.32006377530932"/>
  <trip id="233" depart="145.0" from="24521704#3.24" to="27862401" departLane="random" departSpeed="31.56189316"/>
  <trip id="234" depart="146.6" from="24521704#3.24" to="27862401" departLane="random" departSpeed="31.85295808200001"/>
  <trip id="235" depart="146.9" from="124471132" to="380664935" departLane="random" departSpeed="33.59776951570754"/>
  <trip id="236" depart="149.2" from="124471132" to="380664935" departLane="random" departSpeed="25.12781362122456"/>
  <trip id="237" depart="149.9" from="124471132" to="27878350" departLane="random" departSpeed="29.883680960643648"/>
  <trip id="238" depart="150.9" from="124471132" to="24521700#0" departLane="random" departSpeed="5.957032907885601"/>
  <trip id="239" depart="151.5" from="124471132" to="380664935" departLane="random" departSpeed="29.49117621909319"/>
  <trip id="240" depart="152.9" from="124471132" to="907236679" departLane="random" departSpeed="31.307845253519325"/>
  <trip id="241" depart="153.1" from="124471132" to="24306156" departLane="random" departSpeed="30.082117020456582"/>
  <trip id="242" depart="153.6" from="24521704#3.24" to="907236679" departLane="random" departSpeed="31.85295808200001"/>
  <trip id="243" depart="153.8" from="124471132" to="380664935" departLane="random" departSpeed="33.59126233488732"/>
  <trip id="244" depart="154.2" from="124471132" to="27862401" departLane="random" departSpeed="16.808334884580496"/>
  <trip id="245" depart="154.7" from="124471132" to="907236679" departLane="random" departSpeed="34.44736131121993"/>
  <trip id="246" depart="154.7" from="124471132" to="380664935" departLane="random" departSpeed="16.808334884580496"/>
  <trip id="247" depart="154.8" from="124471132" to="380664935" departLane="random" departSpeed="25.12781362122456"/>
  <trip id="248" depart="154.9" from="124471132" to="907236679" departLane="random" departSpeed="20.2512139776802"/>
  <trip id="249" depart="155.4" from="124471132" to="907236679" departLane="random" departSpeed="4.770037456645731"/>
  <trip id="250" depart="157.7" from="124471132" to="380664935" departLane="random" departSpeed="33.82249778431291"/>
  <trip id="251" depart="157.8" from="124471132" to="380664935" departLane="random" departSpeed="33.8707054881056"/>
  <trip id="252" depart="158.1" from="124471132" to="907236679" departLane="random" departSpeed="9.51510975867069"/>
  <trip id="253" depart="159.0" from="124471132" to="380664935" departLane="random" departSpeed="14.830074822390053"/>
  <trip id="254" depart="159.7" from="124471132" to="380664935" departLane="random" departSpeed="33.87827552413766"/>
  <trip id="255" depart="160.2" from="124471132" to="907236679" departLane="random" departSpeed="33.42811646463369"/>
  <trip id="256" depart="161.1" from="124471132" to="907236679" departLane="random" departSpeed="34.10421680056501"/>