<?xml version="1.0" encoding="UTF-8"?>

<!-- generated on 2026-02-19 23:37:35 by Eclipse SUMO netedit Version 1.21.0
<neteditConfiguration xmlns:xsi="http://www.w3.org/2001/XMLSchema-instance" xsi:noNamespaceSchemaLocation="http://sumo.dlr.de/xsd/neteditConfiguration.xsd">

    <input>
        <sumo-net-file value="C:\Users\nachu\network_structure\Geometry_Templates\single_intersection\single_intersection_EW3_NS3_template.net.xml"/>
    </input>

    <output>
        <output-file value="C:\Users\nachu\network_structure\Geometry_Templates\single_intersection\single_intersection_EW3_NS3_template.net.xml"/>
    </output>

    <processing>
        <geometry.min-radius.fix.railways value="false"/>
        <geometry.max-grade.fix value="false"/>
        <offset.disable-normalization value="true"/>
        <lefthand value="0"/>
    </processing>

    <junctions>
        <no-internal-links value="false"/>
        <no-turnarounds value="true"/>
        <junctions.corner-detail value="5"/>
        <junctions.limit-turn-speed value="5.50"/>
        <rectangular-lane-cut value="0"/>
    </junctions>

    <pedestrian>
        <walkingareas value="0"/>
    </pedestrian>

</neteditConfiguration>
-->

<net version="1.20" junctionCornerDetail="5" limitTurnSpeed="5.50" xmlns:xsi="http://www.w3.org/2001/XMLSchema-instance" xsi:noNamespaceSchemaLocation="http://sumo.dlr.de/xsd/net_file.xsd">

    <location netOffset="0.00,0.00" convBoundary="-200.00,-200.00,200.00,200.00" origBoundary="-10000000000.00,-10000000000.00,10000000000.00,10000000000.00" projParameter="!"/>

    <edge id=":Intersection_0" function="internal">
        <lane id=":Intersection_0_0" index="0" allow="bicycle" speed="8.60" length="8.22" width="2.00" shape="-10.60,21.10 -11.26,16.51 -13.10,13.43"/>
    </edge>
    <edge id=":Intersection_1" function="internal">
        <lane id=":Intersection_1_0" index="0" allow="bicycle" speed="13.89" length="42.20" width="2.00" shape="-10.60,21.10 -10.60,-21.10"/>
    </edge>
    <edge id=":Intersection_2" function="internal">
        <lane id=":Intersection_2_0" index="0" allow="bicycle" speed="13.89" length="27.33" width="2.00" shape="-10.60,21.10 -8.62,7.23 -2.68,-2.67 -1.16,-3.58"/>
    </edge>
    <edge id=":Intersection_3" function="internal">
        <lane id=":Intersection_3_0" index="0" disallow="pedestrian bicycle" speed="9.65" length="7.23" shape="-8.00,21.10 -8.82,15.37 -9.56,14.14"/>
    </edge>
    <edge id=":Intersection_4" function="internal">
        <lane id=":Intersection_4_0" index="0" disallow="pedestrian bicycle" speed="13.89" length="42.20" shape="-8.00,21.10 -8.00,-21.10"/>
        <lane id=":Intersection_4_1" index="1" disallow="pedestrian bicycle" speed="13.89" length="42.20" shape="-4.80,21.10 -4.80,-21.10"/>
        <lane id=":Intersection_4_2" index="2" disallow="pedestrian bicycle" speed="13.89" length="42.20" shape="-1.60,21.10 -1.60,-21.10"/>
    </edge>
    <edge id=":Intersection_7" function="internal">
        <lane id=":Intersection_7_0" index="0" disallow="pedestrian bicycle" speed="12.58" length="5.01" shape="-1.60,21.10 -0.89,16.14"/>
    </edge>
    <edge id=":Intersection_32" function="internal">
        <lane id=":Intersection_32_0" index="0" allow="bicycle" speed="8.60" length="8.71" width="2.00" shape="-13.10,13.43 -13.22,13.22 -16.51,11.26 -21.10,10.60"/>
    </edge>
    <edge id=":Intersection_33" function="internal">
        <lane id=":Intersection_33_0" index="0" allow="bicycle" speed="13.89" length="23.80" width="2.00" shape="-1.16,-3.58 7.23,-8.62 21.10,-10.60"/>
    </edge>
    <edge id=":Intersection_34" function="internal">
        <lane id=":Intersection_34_0" index="0" disallow="pedestrian bicycle" speed="9.65" length="13.90" shape="-9.56,14.14 -11.27,11.27 -15.37,8.82 -21.10,8.00"/>
    </edge>
    <edge id=":Intersection_35" function="internal">
        <lane id=":Intersection_35_0" index="0" disallow="pedestrian bicycle" speed="12.58" length="31.60" shape="-0.89,16.14 -0.18,11.17 4.07,4.07 11.17,-0.18 21.10,-1.60"/>
    </edge>
    <edge id=":Intersection_8" function="internal">
        <lane id=":Intersection_8_0" index="0" allow="bicycle" speed="8.60" length="8.22" width="2.00" shape="21.10,10.60 16.51,11.26 13.43,13.10"/>
    </edge>
    <edge id=":Intersection_9" function="internal">
        <lane id=":Intersection_9_0" index="0" allow="bicycle" speed="13.89" length="42.20" width="2.00" shape="21.10,10.60 -21.10,10.60"/>
    </edge>
    <edge id=":Intersection_10" function="internal">
        <lane id=":Intersection_10_0" index="0" allow="bicycle" speed="13.89" length="27.33" width="2.00" shape="21.10,10.60 7.23,8.62 -2.67,2.68 -3.58,1.16"/>
    </edge>
    <edge id=":Intersection_11" function="internal">
        <lane id=":Intersection_11_0" index="0" disallow="pedestrian bicycle" speed="9.65" length="7.23" shape="21.10,8.00 15.37,8.82 14.14,9.56"/>
    </edge>
    <edge id=":Intersection_12" function="internal">
        <lane id=":Intersection_12_0" index="0" disallow="pedestrian bicycle" speed="13.89" length="42.20" shape="21.10,8.00 -21.10,8.00"/>
        <lane id=":Intersection_12_1" index="1" disallow="pedestrian bicycle" speed="13.89" length="42.20" shape="21.10,4.80 -21.10,4.80"/>
        <lane id=":Intersection_12_2" index="2" disallow="pedestrian bicycle" speed="13.89" length="42.20" shape="21.10,1.60 -21.10,1.60"/>
    </edge>
    <edge id=":Intersection_15" function="internal">
        <lane id=":Intersection_15_0" index="0" disallow="pedestrian bicycle" speed="12.58" length="5.01" shape="21.10,1.60 16.14,0.89"/>
    </edge>
    <edge id=":Intersection_36" function="internal">
        <lane id=":Intersection_36_0" index="0" allow="bicycle" speed="8.60" length="8.71" width="2.00" shape="13.43,13.10 13.22,13.22 11.26,16.51 10.60,21.10"/>
    </edge>
    <edge id=":Intersection_37" function="internal">
        <lane id=":Intersection_37_0" index="0" allow="bicycle" speed="13.89" length="23.80" width="2.00" shape="-3.58,1.16 -8.62,-7.23 -10.60,-21.10"/>
    </edge>
    <edge id=":Intersection_38" function="internal">
        <lane id=":Intersection_38_0" index="0" disallow="pedestrian bicycle" speed="9.65" length="13.90" shape="14.14,9.56 11.27,11.27 8.82,15.37 8.00,21.10"/>
    </edge>
    <edge id=":Intersection_39" function="internal">
        <lane id=":Intersection_39_0" index="0" disallow="pedestrian bicycle" speed="12.58" length="31.60" shape="16.14,0.89 11.17,0.18 4.07,-4.07 -0.18,-11.17 -1.60,-21.10"/>
    </edge>
    <edge id=":Intersection_16" function="internal">
        <lane id=":Intersection_16_0" index="0" allow="bicycle" speed="8.60" length="8.22" width="2.00" shape="10.60,-21.10 11.26,-16.51 13.10,-13.43"/>
    </edge>
    <edge id=":Intersection_17" function="internal">
        <lane id=":Intersection_17_0" index="0" allow="bicycle" speed="13.89" length="42.20" width="2.00" shape="10.60,-21.10 10.60,21.10"/>
    </edge>
    <edge id=":Intersection_18" function="internal">
        <lane id=":Intersection_18_0" index="0" allow="bicycle" speed="13.89" length="27.33" width="2.00" shape="10.60,-21.10 8.62,-7.23 2.68,2.67 1.16,3.58"/>
    </edge>
    <edge id=":Intersection_19" function="internal">
        <lane id=":Intersection_19_0" index="0" disallow="pedestrian bicycle" speed="9.65" length="7.23" shape="8.00,-21.10 8.82,-15.37 9.56,-14.14"/>
    </edge>
    <edge id=":Intersection_20" function="internal">
        <lane id=":Intersection_20_0" index="0" disallow="pedestrian bicycle" speed="13.89" length="42.20" shape="8.00,-21.10 8.00,21.10"/>
        <lane id=":Intersection_20_1" index="1" disallow="pedestrian bicycle" speed="13.89" length="42.20" shape="4.80,-21.10 4.80,21.10"/>
        <lane id=":Intersection_20_2" index="2" disallow="pedestrian bicycle" speed="13.89" length="42.20" shape="1.60,-21.10 1.60,21.10"/>
    </edge>
    <edge id=":Intersection_23" function="internal">
        <lane id=":Intersection_23_0" index="0" disallow="pedestrian bicycle" speed="12.58" length="5.01" shape="1.60,-21.10 0.89,-16.14"/>
    </edge>
    <edge id=":Intersection_40" function="internal">
        <lane id=":Intersection_40_0" index="0" allow="bicycle" speed="8.60" length="8.71" width="2.00" shape="13.10,-13.43 13.22,-13.22 16.51,-11.26 21.10,-10.60"/>
    </edge>
    <edge id=":Intersection_41" function="internal">
        <lane id=":Intersection_41_0" index="0" allow="bicycle" speed="13.89" length="23.80" width="2.00" shape="1.16,3.58 -7.23,8.62 -21.10,10.60"/>
    </edge>
    <edge id=":Intersection_42" function="internal">
        <lane id=":Intersection_42_0" index="0" disallow="pedestrian bicycle" speed="9.65" length="13.90" shape="9.56,-14.14 11.27,-11.27 15.37,-8.82 21.10,-8.00"/>
    </edge>
    <edge id=":Intersection_43" function="internal">
        <lane id=":Intersection_43_0" index="0" disallow="pedestrian bicycle" speed="12.58" length="31.60" shape="0.89,-16.14 0.18,-11.17 -4.07,-4.07 -11.17,0.18 -21.10,1.60"/>
    </edge>
    <edge id=":Intersection_24" function="internal">
        <lane id=":Intersection_24_0" index="0" allow="bicycle" speed="8.60" length="8.22" width="2.00" shape="-21.10,-10.60 -16.51,-11.26 -13.43,-13.10"/>
    </edge>
    <edge id=":Intersection_25" function="internal">
        <lane id=":Intersection_25_0" index="0" allow="bicycle" speed="13.89" length="42.20" width="2.00" shape="-21.10,-10.60 21.10,-10.60"/>
    </edge>
    <edge id=":Intersection_26" function="internal">
        <lane id=":Intersection_26_0" index="0" allow="bicycle" speed="13.89" length="27.33" width="2.00" shape="-21.10,-10.60 -7.23,-8.62 2.67,-2.68 3.58,-1.16"/>
    </edge>
    <edge id=":Intersection_27" function="internal">
        <lane id=":Intersection_27_0" index="0" disallow="pedestrian bicycle" speed="9.65" length="7.23" shape="-21.10,-8.00 -15.37,-8.82 -14.14,-9.56"/>
    </edge>
    <edge id=":Intersection_28" function="internal">
        <lane id=":Intersection_28_0" index="0" disallow="pedestrian bicycle" speed="13.89" length="42.20" shape="-21.10,-8.00 21.10,-8.00"/>
        <lane id=":Intersection_28_1" index="1" disallow="pedestrian bicycle" speed="13.89" length="42.20" shape="-21.10,-4.80 21.10,-4.80"/>
        <lane id=":Intersection_28_2" index="2" disallow="pedestrian bicycle" speed="13.89" length="42.20" shape="-21.10,-1.60 21.10,-1.60"/>
    </edge>
    <edge id=":Intersection_31" function="internal">
        <lane id=":Intersection_31_0" index="0" disallow="pedestrian bicycle" speed="12.58" length="5.01" shape="-21.10,-1.60 -16.14,-0.89"/>
    </edge>
    <edge id=":Intersection_44" function="internal">
        <lane id=":Intersection_44_0" index="0" allow="bicycle" speed="8.60" length="8.71" width="2.00" shape="-13.43,-13.10 -13.22,-13.22 -11.26,-16.51 -10.60,-21.10"/>
    </edge>
    <edge id=":Intersection_45" function="internal">
        <lane id=":Intersection_45_0" index="0" allow="bicycle" speed="13.89" length="23.80" width="2.00" shape="3.58,-1.16 8.62,7.23 10.60,21.10"/>
    </edge>
    <edge id=":Intersection_46" function="internal">
        <lane id=":Intersection_46_0" index="0" disallow="pedestrian bicycle" speed="9.65" length="13.90" shape="-14.14,-9.56 -11.27,-11.27 -8.82,-15.37 -8.00,-21.10"/>
    </edge>
    <edge id=":Intersection_47" function="internal">
        <lane id=":Intersection_47_0" index="0" disallow="pedestrian bicycle" speed="12.58" length="31.60" shape="-16.14,-0.89 -11.17,-0.18 -4.07,4.07 0.18,11.17 1.60,21.10"/>
    </edge>
    <edge id=":Intersection_c0" function="crossing" crossingEdges="NB_North SB_North">
        <lane id=":Intersection_c0_0" index="0" allow="pedestrian" speed="2.78" length="23.20" width="8.00" shape="11.60,17.10 -11.60,17.10" outlineShape="11.70,21.10 -11.70,21.10 -11.86,18.20 -12.66,15.82 -13.97,13.97 -15.20,13.10 15.20,13.10 13.97,13.97 12.66,15.82 11.86,18.20"/>
    </edge>
    <edge id=":Intersection_c1" function="crossing" crossingEdges="EB_East WB_East">
        <lane id=":Intersection_c1_0" index="0" allow="pedestrian" speed="2.78" length="23.20" width="8.00" shape="17.10,-11.60 17.10,11.60" outlineShape="21.10,-11.70 21.10,11.70 18.20,11.86 15.82,12.66 13.97,13.97 13.10,15.20 13.10,-15.20 13.97,-13.97 15.82,-12.66 18.20,-11.86"/>
    </edge>
    <edge id=":Intersection_c2" function="crossing" crossingEdges="SB_South NB_South">
        <lane id=":Intersection_c2_0" index="0" allow="pedestrian" speed="2.78" length="23.20" width="8.00" shape="-11.60,-17.10 11.60,-17.10" outlineShape="-11.70,-21.10 11.70,-21.10 11.86,-18.20 12.66,-15.82 13.97,-13.97 15.20,-13.10 -15.20,-13.10 -13.97,-13.97 -12.66,-15.82 -11.86,-18.20"/>
    </edge>
    <edge id=":Intersection_c3" function="crossing" crossingEdges="WB_West EB_West">
        <lane id=":Intersection_c3_0" index="0" allow="pedestrian" speed="2.78" length="23.20" width="8.00" shape="-17.10,11.60 -17.10,-11.60" outlineShape="-21.10,11.70 -21.10,-11.70 -18.20,-11.86 -15.82,-12.66 -13.97,-13.97 -13.10,-15.20 -13.10,15.20 -13.97,13.97 -15.82,12.66 -18.20,11.86"/>
    </edge>
    <edge id=":Intersection_w0" function="walkingarea">
        <lane id=":Intersection_w0_0" index="0" allow="pedestrian" speed="2.78" length="7.68" width="8.00" shape="-21.10,11.60 -21.10,19.60 -19.60,21.10 -11.60,21.10 -11.86,18.20 -12.66,15.82 -13.97,13.97 -15.82,12.66 -18.20,11.86"/>
    </edge>
    <edge id=":Intersection_w1" function="walkingarea">
        <lane id=":Intersection_w1_0" index="0" allow="pedestrian" speed="2.78" length="7.68" width="8.00" shape="11.60,21.10 19.60,21.10 21.10,19.60 21.10,11.60 18.20,11.86 15.82,12.66 13.97,13.97 12.66,15.82 11.86,18.20"/>
    </edge>
    <edge id=":Intersection_w2" function="walkingarea">
        <lane id=":Intersection_w2_0" index="0" allow="pedestrian" speed="2.78" length="7.68" width="8.00" shape="21.10,-11.60 21.10,-19.60 19.60,-21.10 11.60,-21.10 11.86,-18.20 12.66,-15.82 13.97,-13.97 15.82,-12.66 18.20,-11.86"/>
    </edge>
    <edge id=":Intersection_w3" function="walkingarea">
        <lane id=":Intersection_w3_0" index="0" allow="pedestrian" speed="2.78" length="7.68" width="8.00" shape="-11.60,-21.10 -19.60,-21.10 -21.10,-19.60 -21.10,-11.60 -18.20,-11.86 -15.82,-12.66 -13.97,-13.97 -12.66,-15.82 -11.86,-18.20"/>
    </edge>

    <edge id="EB_East" from="Intersection" to="East_out" priority="-1">
        <lane id="EB_East_0" index="0" allow="pedestrian" speed="13.89" length="178.90" width="8.00" shape="21.10,-15.60 200.00,-15.60"/>
        <lane id="EB_East_1" index="1" allow="bicycle" speed="13.89" length="178.90" width="2.00" shape="21.10,-10.60 200.00,-10.60"/>
        <lane id="EB_East_2" index="2" disallow="pedestrian bicycle" speed="13.89" length="178.90" shape="21.10,-8.00 200.00,-8.00"/>
        <lane id="EB_East_3" index="3" disallow="pedestrian bicycle" speed="13.89" length="178.90" shape="21.10,-4.80 200.00,-4.80"/>
        <lane id="EB_East_4" index="4" disallow="pedestrian bicycle" speed="13.89" length="178.90" shape="21.10,-1.60 200.00,-1.60"/>
    </edge>
    <edge id="EB_West" from="West_in" to="Intersection" priority="-1">
        <lane id="EB_West_0" index="0" allow="pedestrian" speed="13.89" length="178.90" width="8.00" shape="-200.00,-15.60 -21.10,-15.60"/>
        <lane id="EB_West_1" index="1" allow="bicycle" speed="13.89" length="178.90" width="2.00" shape="-200.00,-10.60 -21.10,-10.60"/>
        <lane id="EB_West_2" index="2" disallow="pedestrian bicycle" speed="13.89" length="178.90" shape="-200.00,-8.00 -21.10,-8.00"/>
        <lane id="EB_West_3" index="3" disallow="pedestrian bicycle" speed="13.89" length="178.90" shape="-200.00,-4.80 -21.10,-4.80"/>
        <lane id="EB_West_4" index="4" disallow="pedestrian bicycle" speed="13.89" length="178.90" shape="-200.00,-1.60 -21.10,-1.60"/>
    </edge>
    <edge id="NB_North" from="Intersection" to="North_out" priority="-1">
        <lane id="NB_North_0" index="0" allow="pedestrian" speed="13.89" length="178.90" width="8.00" shape="15.60,21.10 15.60,200.00"/>
        <lane id="NB_North_1" index="1" allow="bicycle" speed="13.89" length="178.90" width="2.00" shape="10.60,21.10 10.60,200.00"/>
        <lane id="NB_North_2" index="2" disallow="pedestrian bicycle" speed="13.89" length="178.90" shape="8.00,21.10 8.00,200.00"/>
        <lane id="NB_North_3" index="3" disallow="pedestrian bicycle" speed="13.89" length="178.90" shape="4.80,21.10 4.80,200.00"/>
        <lane id="NB_North_4" index="4" disallow="pedestrian bicycle" speed="13.89" length="178.90" shape="1.60,21.10 1.60,200.00"/>
    </edge>
    <edge id="NB_South" from="South_in" to="Intersection" priority="-1">
        <lane id="NB_South_0" index="0" allow="pedestrian" speed="13.89" length="178.90" width="8.00" shape="15.60,-200.00 15.60,-21.10"/>
        <lane id="NB_South_1" index="1" allow="bicycle" speed="13.89" length="178.90" width="2.00" shape="10.60,-200.00 10.60,-21.10"/>
        <lane id="NB_South_2" index="2" disallow="pedestrian bicycle" speed="13.89" length="178.90" shape="8.00,-200.00 8.00,-21.10"/>
        <lane id="NB_South_3" index="3" disallow="pedestrian bicycle" speed="13.89" length="178.90" shape="4.80,-200.00 4.80,-21.10"/>
        <lane id="NB_South_4" index="4" disallow="pedestrian bicycle" speed="13.89" length="178.90" shape="1.60,-200.00 1.60,-21.10"/>
    </edge>
    <edge id="SB_North" from="North_in" to="Intersection" priority="-1">
        <lane id="SB_North_0" index="0" allow="pedestrian" speed="13.89" length="178.90" width="8.00" shape="-15.60,200.00 -15.60,21.10"/>
        <lane id="SB_North_1" index="1" allow="bicycle" speed="13.89" length="178.90" width="2.00" shape="-10.60,200.00 -10.60,21.10"/>
        <lane id="SB_North_2" index="2" disallow="pedestrian bicycle" speed="13.89" length="178.90" shape="-8.00,200.00 -8.00,21.10"/>
        <lane id="SB_North_3" index="3" disallow="pedestrian bicycle" speed="13.89" length="178.90" shape="-4.80,200.00 -4.80,21.10"/>
        <lane id="SB_North_4" index="4" disallow="pedestrian bicycle" speed="13.89" length="178.90" shape="-1.60,200.00 -1.60,21.10"/>
    </edge>
    <edge id="SB_South" from="Intersection" to="South_out" priority="-1">
        <lane id="SB_South_0" index="0" allow="pedestrian" speed="13.89" length="178.90" width="8.00" shape="-15.60,-21.10 -15.60,-200.00"/>
        <lane id="SB_South_1" index="1" allow="bicycle" speed="13.89" length="178.90" width="2.00" shape="-10.60,-21.10 -10.60,-200.00"/>
        <lane id="SB_South_2" index="2" disallow="pedestrian bicycle" speed="13.89" length="178.90" shape="-8.00,-21.10 -8.00,-200.00"/>
        <lane id="SB_South_3" index="3" disallow="pedestrian bicycle" speed="13.89" length="178.90" shape="-4.80,-21.10 -4.80,-200.00"/>
        <lane id="SB_South_4" index="4" disallow="pedestrian bicycle" speed="13.89" length="178.90" shape="-1.60,-21.10 -1.60,-200.00"/>
    </edge>
    <edge id="WB_East" from="East_in" to="Intersection" priority="-1">
        <lane id="WB_East_0" index="0" allow="pedestrian" speed="13.89" length="178.90" width="8.00" shape="200.00,15.60 21.10,15.60"/>
        <lane id="WB_East_1" index="1" allow="bicycle" speed="13.89" length="178.90" width="2.00" shape="200.00,10.60 21.10,10.60"/>
        <lane id="WB_East_2" index="2" disallow="pedestrian bicycle" speed="13.89" length="178.90" shape="200.00,8.00 21.10,8.00"/>
        <lane id="WB_East_3" index="3" disallow="pedestrian bicycle" speed="13.89" length="178.90" shape="200.00,4.80 21.10,4.80"/>
        <lane id="WB_East_4" index="4" disallow="pedestrian bicycle" speed="13.89" length="178.90" shape="200.00,1.60 21.10,1.60"/>
    </edge>
    <edge id="WB_West" from="Intersection" to="West_out" priority="-1">
        <lane id="WB_West_0" index="0" allow="pedestrian" speed="13.89" length="178.90" width="8.00" shape="-21.10,15.60 -200.00,15.60"/>
        <lane id="WB_West_1" index="1" allow="bicycle" speed="13.89" length="178.90" width="2.00" shape="-21.10,10.60 -200.00,10.60"/>
        <lane id="WB_West_2" index="2" disallow="pedestrian bicycle" speed="13.89" length="178.90" shape="-21.10,8.00 -200.00,8.00"/>
        <lane id="WB_West_3" index="3" disallow="pedestrian bicycle" speed="13.89" length="178.90" shape="-21.10,4.80 -200.00,4.80"/>
        <lane id="WB_West_4" index="4" disallow="pedestrian bicycle" speed="13.89" length="178.90" shape="-21.10,1.60 -200.00,1.60"/>
    </edge>

    <tlLogic id="J1" type="static" programID="0" offset="0">
        <phase duration="36" state="gGggGGGgrrrrrrrrgGggGGGgrrrrrrrrrGrG"/>
        <phase duration="5"  state="gGggGGGgrrrrrrrrgGggGGGgrrrrrrrrrrrr"/>
        <phase duration="3"  state="yyyyyyyyrrrrrrrryyyyyyyyrrrrrrrrrrrr"/>
        <phase duration="1"  state="rrrrrrrrrrrrrrrrrrrrrrrrrrrrrrrrrrrr"/>
        <phase duration="36" state="rrrrrrrrgGggGGGgrrrrrrrrgGggGGGgGrGr"/>
        <phase duration="5"  state="rrrrrrrrgGggGGGgrrrrrrrrgGggGGGgrrrr"/>
        <phase duration="3"  state="rrrrrrrryyyyyyyyrrrrrrrryyyyyyyyrrrr"/>
        <phase duration="1"  state="rrrrrrrrrrrrrrrrrrrrrrrrrrrrrrrrrrrr"/>
    </tlLogic>

    <junction id="East_in" type="dead_end" x="200.00" y="0.00" incLanes="" intLanes="" shape="200.00,0.00 200.00,19.60"/>
    <junction id="East_out" type="dead_end" x="200.00" y="0.00" incLanes="EB_East_0 EB_East_1 EB_East_2 EB_East_3 EB_East_4" intLanes="" shape="200.00,-19.60 200.00,0.00"/>
    <junction id="Intersection" type="traffic_light" x="0.00" y="0.00" incLanes="SB_North_0 SB_North_1 SB_North_2 SB_North_3 SB_North_4 WB_East_0 WB_East_1 WB_East_2 WB_East_3 WB_East_4 NB_South_0 NB_South_1 NB_South_2 NB_South_3 NB_South_4 EB_West_0 EB_West_1 EB_West_2 EB_West_3 EB_West_4 :Intersection_w1_0 :Intersection_w2_0 :Intersection_w3_0 :Intersection_w0_0" intLanes=":Intersection_32_0 :Intersection_1_0 :Intersection_33_0 :Intersection_34_0 :Intersection_4_0 :Intersection_4_1 :Intersection_4_2 :Intersection_35_0 :Intersection_36_0 :Intersection_9_0 :Intersection_37_0 :Intersection_38_0 :Intersection_12_0 :Intersection_12_1 :Intersection_12_2 :Intersection_39_0 :Intersection_40_0 :Intersection_17_0 :Intersection_41_0 :Intersection_42_0 :Intersection_20_0 :Intersection_20_1 :Intersection_20_2 :Intersection_43_0 :Intersection_44_0 :Intersection_25_0 :Intersection_45_0 :Intersection_46_0 :Intersection_28_0 :Intersection_28_1 :Intersection_28_2 :Intersection_47_0 :Intersection_c0_0 :Intersection_c1_0 :Intersection_c2_0 :Intersection_c3_0" shape="-19.60,21.10 19.60,21.10 19.77,20.27 19.98,19.97 20.27,19.77 20.64,19.64 21.10,19.60 21.10,-19.60 20.27,-19.77 19.97,-19.98 19.77,-20.27 19.64,-20.64 19.60,-21.10 -19.60,-21.10 -19.77,-20.27 -19.98,-19.97 -20.27,-19.77 -20.64,-19.64 -21.10,-19.60 -21.10,19.60 -20.27,19.77 -19.97,19.98 -19.77,20.27 -19.64,20.64">
        <request index="0"  response="100100000000000000000000000000000000" foes="100100000000000001000000001000000000" cont="1"/>
        <request index="1"  response="010110001101000000000000010000000000" foes="010111111111100001000111011000001000" cont="0"/>
        <request index="2"  response="001110000100011110111000010001110000" foes="001111110110111111111111011001111000" cont="1"/>
        <request index="3"  response="100100000000000000000000000000000110" foes="100100000000100001000111001000000110" cont="1"/>
        <request index="4"  response="010110001100000000001000010000000000" foes="010111111110100001001111011000000100" cont="0"/>
        <request index="5"  response="010110001100000000001000010000000000" foes="010111111110100001001111011000000100" cont="0"/>
        <request index="6"  response="010110001100000000001000010000000000" foes="010111111110100001001111011000000100" cont="0"/>
        <request index="7"  response="001110000100011110101000010000000000" foes="001111110100011110101111011000000000" cont="1"/>
        <request index="8"  response="001100000000000000100000000000000000" foes="001100000100000000100000000000000000" cont="1"/>
        <request index="9"  response="101000000000011101100000000011111111" foes="101010000100011101100000100011111111" cont="0"/>
        <request index="10" response="011001111011111101100111000011110110" foes="011011111111111101100111100011110110" cont="1"/>
        <request index="11" response="001100000000011100100000011000000000" foes="001110000100011100100000011000000000" cont="1"/>
        <request index="12" response="101000000000111101100000000011111110" foes="101010000100111101100000010011111110" cont="0"/>
        <request index="13" response="101000000000111101100000000011111110" foes="101010000100111101100000010011111110" cont="0"/>
        <request index="14" response="101000000000111101100000000011111110" foes="101010000100111101100000010011111110" cont="0"/>
        <request index="15" response="011001111010111101100000000011110100" foes="011001111010111101100000000011110100" cont="1"/>
        <request index="16" response="011000000000000000000000000000000000" foes="011000000010000000000000000000000100" cont="1"/>
        <request index="17" response="010100000100000000001000110100000000" foes="010101110110000010001111111110000100" cont="0"/>
        <request index="18" response="110010000100011100001000010011111111" foes="110011110110011110001111011011111111" cont="1"/>
        <request index="19" response="011000000000000001100000000000000000" foes="011001110010000001100000000010000100" cont="1"/>
        <request index="20" response="010110000100000000001000110000000000" foes="010111110110000001001111111010000100" cont="0"/>
        <request index="21" response="010110000100000000001000110000000000" foes="010111110110000001001111111010000100" cont="0"/>
        <request index="22" response="010110000100000000001000110000000000" foes="010111110110000001001111111010000100" cont="0"/>
        <request index="23" response="110010000100000000001000010001111010" foes="110011110110000000001111010001111010" cont="1"/>
        <request index="24" response="110000000000000000000000000000000010" foes="110000000000000000000000010000000010" cont="1"/>
        <request index="25" response="101000000000111111110000000001110110" foes="101000001000111111111000010001110110" cont="0"/>
        <request index="26" response="100101110000111101101111111111110110" foes="100101111000111101101111111111110110" cont="1"/>
        <request index="27" response="110000000110000000000000000001110010" foes="110000000110000000001000010001110010" cont="1"/>
        <request index="28" response="101000000000111111100000000011110110" foes="101000000100111111101000010011110110" cont="0"/>
        <request index="29" response="101000000000111111100000000011110110" foes="101000000100111111101000010011110110" cont="0"/>
        <request index="30" response="101000000000111111100000000011110110" foes="101000000100111111101000010011110110" cont="0"/>
        <request index="31" response="100100000000111101000111101011110110" foes="100100000000111101000111101011110110" cont="1"/>
        <request index="32" response="000000000000000000000000000000000000" foes="000010000100011100100000100111111111" cont="0"/>
        <request index="33" response="000000000000000000000000000000000000" foes="000001110010000010011111111110000100" cont="0"/>
        <request index="34" response="000000000000000000000000000000000000" foes="000000001001111111111000010001110010" cont="0"/>
        <request index="35" response="000000000000000000000000000000000000" foes="000011111111100001000111001000001001" cont="0"/>
    </junction>
    <junction id="North_in" type="dead_end" x="0.00" y="200.00" incLanes="" intLanes="" shape="0.00,200.00 -19.60,200.00"/>
    <junction id="North_out" type="dead_end" x="0.00" y="200.00" incLanes="NB_North_0 NB_North_1 NB_North_2 NB_North_3 NB_North_4" intLanes="" shape="19.60,200.00 0.00,200.00"/>
    <junction id="South_in" type="dead_end" x="0.00" y="-200.00" incLanes="" intLanes="" shape="0.00,-200.00 19.60,-200.00"/>
    <junction id="South_out" type="dead_end" x="0.00" y="-200.00" incLanes="SB_South_0 SB_South_1 SB_South_2 SB_South_3 SB_South_4" intLanes="" shape="-19.60,-200.00 0.00,-200.00"/>
    <junction id="West_in" type="dead_end" x="-200.00" y="0.00" incLanes="" intLanes="" shape="-200.00,0.00 -200.00,-19.60"/>
    <junction id="West_out" type="dead_end" x="-200.00" y="0.00" incLanes="WB_West_0 WB_West_1 WB_West_2 WB_West_3 WB_West_4" intLanes="" shape="-200.00,19.60 -200.00,0.00"/>

    <junction id=":Intersection_32_0" type="internal" x="-13.10" y="13.43" incLanes=":Intersection_0_0" intLanes=":Intersection_9_0 :Intersection_12_0 :Intersection_12_1 :Intersection_12_2 :Intersection_18_0 :Intersection_23_0 :Intersection_c0_0 :Intersection_c3_0"/>
    <junction id=":Intersection_33_0" type="internal" x="-1.16" y="-3.58" incLanes=":Intersection_2_0 NB_South_1 NB_South_2 NB_South_3 NB_South_4" intLanes=":Intersection_4_0 :Intersection_4_1 :Intersection_4_2 :Intersection_9_0 :Intersection_10_0 :Intersection_12_0 :Intersection_12_1 :Intersection_12_2 :Intersection_15_0 :Intersection_16_0 :Intersection_17_0 :Intersection_18_0 :Intersection_19_0 :Intersection_20_0 :Intersection_20_1 :Intersection_20_2 :Intersection_25_0 :Intersection_26_0 :Intersection_28_0 :Intersection_28_1 :Intersection_28_2 :Intersection_31_0 :Intersection_c0_0 :Intersection_c1_0"/>
    <junction id=":Intersection_34_0" type="internal" x="-9.56" y="14.14" incLanes=":Intersection_3_0 SB_North_1" intLanes=":Intersection_1_0 :Intersection_2_0 :Intersection_9_0 :Intersection_12_0 :Intersection_12_1 :Intersection_12_2 :Intersection_18_0 :Intersection_23_0 :Intersection_c0_0 :Intersection_c3_0"/>