<?xml version="1.0" encoding="UTF-8"?>

<!-- generated on 2026-02-28 13:53:00 by Eclipse SUMO netedit Version 1.21.0
<neteditConfiguration xmlns:xsi="http://www.w3.org/2001/XMLSchema-instance" xsi:noNamespaceSchemaLocation="http://sumo.dlr.de/xsd/neteditConfiguration.xsd">

    <input>
        <sumo-net-file value="C:\Users\nachu\network_structure\Geometry_Templates\single_intersection\single_intersection_EW2_NS2_stop_sign_template.net.xml"/>
    </input>

    <output>
        <output-file value="C:\Users\nachu\network_structure\Geometry_Templates\single_intersection\single_intersection_EW2_NS2_stop_sign_template.net.xml"/>
    </output>

    <processing>
        <geometry.min-radius.fix.railways value="false"/>
        <geometry.max-grade.fix value="false"/>
        <offset.disable-normalization value="true"/>
        <lefthand value="0"/>
    </processing>

    <junctions>
        <no-internal-links value="false"/>
        <no-turnarounds value="true"/>
        <junctions.corner-detail value="5"/>
        <junctions.limit-turn-speed value="5.50"/>
        <rectangular-lane-cut value="0"/>
    </junctions>

    <pedestrian>
        <walkingareas value="0"/>
    </pedestrian>

</neteditConfiguration>
-->

<net version="1.20" junctionCornerDetail="5" limitTurnSpeed="5.50" xmlns:xsi="http://www.w3.org/2001/XMLSchema-instance" xsi:noNamespaceSchemaLocation="http://sumo.dlr.de/xsd/net_file.xsd">

    <location netOffset="0.00,0.00" convBoundary="-200.00,-200.00,200.00,200.00" origBoundary="-10000000000.00,-10000000000.00,10000000000.00,10000000000.00" projParameter="!"/>

    <edge id=":Intersection_0" function="internal">
        <lane id=":Intersection_0_0" index="0" allow="pedestrian" speed="6.95" length="8.87" width="8.00" shape="-12.40,17.90 -12.74,15.49 -13.78,13.77 -15.49,12.74 -17.90,12.40"/>
    </edge>
    <edge id=":Intersection_1" function="internal">
        <lane id=":Intersection_1_0" index="0" allow="pedestrian" speed="13.89" length="35.80" width="8.00" shape="-12.40,17.90 -12.40,-17.90"/>
    </edge>
    <edge id=":Intersection_2" function="internal">
        <lane id=":Intersection_2_0" index="0" allow="pedestrian" speed="13.89" length="44.38" width="8.00" shape="-12.40,17.90 -8.92,9.42 -0.58,-0.58 9.42,-8.92 17.90,-12.40"/>
    </edge>
    <edge id=":Intersection_3" function="internal">
        <lane id=":Intersection_3_0" index="0" allow="bicycle" speed="8.60" length="16.93" width="2.00" shape="-7.40,17.90 -8.06,13.31 -10.03,10.02 -13.31,8.06 -17.90,7.40"/>
    </edge>
    <edge id=":Intersection_4" function="internal">
        <lane id=":Intersection_4_0" index="0" allow="bicycle" speed="13.89" length="35.80" width="2.00" shape="-7.40,17.90 -7.40,-17.90"/>
    </edge>
    <edge id=":Intersection_5" function="internal">
        <lane id=":Intersection_5_0" index="0" allow="bicycle" speed="12.67" length="37.52" width="2.00" shape="-7.40,17.90 -4.70,10.20 1.92,1.92 10.20,-4.70 17.90,-7.40"/>
    </edge>
    <edge id=":Intersection_6" function="internal">
        <lane id=":Intersection_6_0" index="0" disallow="pedestrian bicycle" speed="9.65" length="21.13" shape="-4.80,17.90 -5.62,12.17 -8.08,8.07 -12.17,5.62 -17.90,4.80"/>
    </edge>
    <edge id=":Intersection_7" function="internal">
        <lane id=":Intersection_7_0" index="0" disallow="pedestrian bicycle" speed="13.89" length="35.80" shape="-4.80,17.90 -4.80,-17.90"/>
        <lane id=":Intersection_7_1" index="1" disallow="pedestrian bicycle" speed="13.89" length="35.80" shape="-1.60,17.90 -1.60,-17.90"/>
    </edge>
    <edge id=":Intersection_9" function="internal">
        <lane id=":Intersection_9_0" index="0" disallow="pedestrian bicycle" speed="11.36" length="29.66" shape="-1.60,17.90 0.20,11.10 4.82,4.82 11.10,0.20 17.90,-1.60"/>
    </edge>
    <edge id=":Intersection_10" function="internal">
        <lane id=":Intersection_10_0" index="0" allow="pedestrian" speed="6.95" length="8.87" width="8.00" shape="17.90,12.40 15.49,12.74 13.77,13.78 12.74,15.49 12.40,17.90"/>
    </edge>
    <edge id=":Intersection_11" function="internal">
        <lane id=":Intersection_11_0" index="0" allow="pedestrian" speed="13.89" length="35.80" width="8.00" shape="17.90,12.40 -17.90,12.40"/>
    </edge>
    <edge id=":Intersection_12" function="internal">
        <lane id=":Intersection_12_0" index="0" allow="pedestrian" speed="13.89" length="44.38" width="8.00" shape="17.90,12.40 9.42,8.92 -0.58,0.58 -8.92,-9.42 -12.40,-17.90"/>
    </edge>
    <edge id=":Intersection_13" function="internal">
        <lane id=":Intersection_13_0" index="0" allow="bicycle" speed="8.60" length="16.93" width="2.00" shape="17.90,7.40 13.31,8.06 10.02,10.03 8.06,13.31 7.40,17.90"/>
    </edge>
    <edge id=":Intersection_14" function="internal">
        <lane id=":Intersection_14_0" index="0" allow="bicycle" speed="13.89" length="35.80" width="2.00" shape="17.90,7.40 -17.90,7.40"/>
    </edge>
    <edge id=":Intersection_15" function="internal">
        <lane id=":Intersection_15_0" index="0" allow="bicycle" speed="12.67" length="37.52" width="2.00" shape="17.90,7.40 10.20,4.70 1.92,-1.92 -4.70,-10.20 -7.40,-17.90"/>
    </edge>
    <edge id=":Intersection_16" function="internal">
        <lane id=":Intersection_16_0" index="0" disallow="pedestrian bicycle" speed="9.65" length="21.13" shape="17.90,4.80 12.17,5.62 8.07,8.08 5.62,12.17 4.80,17.90"/>
    </edge>
    <edge id=":Intersection_17" function="internal">
        <lane id=":Intersection_17_0" index="0" disallow="pedestrian bicycle" speed="13.89" length="35.80" shape="17.90,4.80 -17.90,4.80"/>
        <lane id=":Intersection_17_1" index="1" disallow="pedestrian bicycle" speed="13.89" length="35.80" shape="17.90,1.60 -17.90,1.60"/>
    </edge>
    <edge id=":Intersection_19" function="internal">
        <lane id=":Intersection_19_0" index="0" disallow="pedestrian bicycle" speed="11.36" length="29.66" shape="17.90,1.60 11.10,-0.20 4.82,-4.82 0.20,-11.10 -1.60,-17.90"/>
    </edge>
    <edge id=":Intersection_20" function="internal">
        <lane id=":Intersection_20_0" index="0" allow="pedestrian" speed="6.95" length="8.87" width="8.00" shape="12.40,-17.90 12.74,-15.49 13.78,-13.77 15.49,-12.74 17.90,-12.40"/>
    </edge>
    <edge id=":Intersection_21" function="internal">
        <lane id=":Intersection_21_0" index="0" allow="pedestrian" speed="13.89" length="35.80" width="8.00" shape="12.40,-17.90 12.40,17.90"/>
    </edge>
    <edge id=":Intersection_22" function="internal">
        <lane id=":Intersection_22_0" index="0" allow="pedestrian" speed="13.89" length="44.38" width="8.00" shape="12.40,-17.90 8.92,-9.42 0.58,0.58 -9.42,8.92 -17.90,12.40"/>
    </edge>
    <edge id=":Intersection_23" function="internal">
        <lane id=":Intersection_23_0" index="0" allow="bicycle" speed="8.60" length="16.93" width="2.00" shape="7.40,-17.90 8.06,-13.31 10.03,-10.02 13.31,-8.06 17.90,-7.40"/>
    </edge>
    <edge id=":Intersection_24" function="internal">
        <lane id=":Intersection_24_0" index="0" allow="bicycle" speed="13.89" length="35.80" width="2.00" shape="7.40,-17.90 7.40,17.90"/>
    </edge>
    <edge id=":Intersection_25" function="internal">
        <lane id=":Intersection_25_0" index="0" allow="bicycle" speed="12.67" length="37.52" width="2.00" shape="7.40,-17.90 4.70,-10.20 -1.92,-1.92 -10.20,4.70 -17.90,7.40"/>
    </edge>
    <edge id=":Intersection_26" function="internal">
        <lane id=":Intersection_26_0" index="0" disallow="pedestrian bicycle" speed="9.65" length="21.13" shape="4.80,-17.90 5.62,-12.17 8.08,-8.07 12.17,-5.62 17.90,-4.80"/>
    </edge>
    <edge id=":Intersection_27" function="internal">
        <lane id=":Intersection_27_0" index="0" disallow="pedestrian bicycle" speed="13.89" length="35.80" shape="4.80,-17.90 4.80,17.90"/>
        <lane id=":Intersection_27_1" index="1" disallow="pedestrian bicycle" speed="13.89" length="35.80" shape="1.60,-17.90 1.60,17.90"/>
    </edge>
    <edge id=":Intersection_29" function="internal">
        <lane id=":Intersection_29_0" index="0" disallow="pedestrian bicycle" speed="11.36" length="29.66" shape="1.60,-17.90 -0.20,-11.10 -4.82,-4.82 -11.10,-0.20 -17.90,1.60"/>
    </edge>
    <edge id=":Intersection_30" function="internal">
        <lane id=":Intersection_30_0" index="0" allow="pedestrian" speed="6.95" length="8.87" width="8.00" shape="-17.90,-12.40 -15.49,-12.74 -13.77,-13.78 -12.74,-15.49 -12.40,-17.90"/>
    </edge>
    <edge id=":Intersection_31" function="internal">
        <lane id=":Intersection_31_0" index="0" allow="pedestrian" speed="13.89" length="35.80" width="8.00" shape="-17.90,-12.40 17.90,-12.40"/>
    </edge>
    <edge id=":Intersection_32" function="internal">
        <lane id=":Intersection_32_0" index="0" allow="pedestrian" speed="13.89" length="44.38" width="8.00" shape="-17.90,-12.40 -9.42,-8.92 0.58,-0.58 8.92,9.42 12.40,17.90"/>
    </edge>
    <edge id=":Intersection_33" function="internal">
        <lane id=":Intersection_33_0" index="0" allow="bicycle" speed="8.60" length="16.93" width="2.00" shape="-17.90,-7.40 -13.31,-8.06 -10.02,-10.03 -8.06,-13.31 -7.40,-17.90"/>
    </edge>
    <edge id=":Intersection_34" function="internal">
        <lane id=":Intersection_34_0" index="0" allow="bicycle" speed="13.89" length="35.80" width="2.00" shape="-17.90,-7.40 17.90,-7.40"/>
    </edge>
    <edge id=":Intersection_35" function="internal">
        <lane id=":Intersection_35_0" index="0" allow="bicycle" speed="12.67" length="37.52" width="2.00" shape="-17.90,-7.40 -10.20,-4.70 -1.92,1.92 4.70,10.20 7.40,17.90"/>
    </edge>
    <edge id=":Intersection_36" function="internal">
        <lane id=":Intersection_36_0" index="0" disallow="pedestrian bicycle" speed="9.65" length="21.13" shape="-17.90,-4.80 -12.17,-5.62 -8.07,-8.08 -5.62,-12.17 -4.80,-17.90"/>
    </edge>
    <edge id=":Intersection_37" function="internal">
        <lane id=":Intersection_37_0" index="0" disallow="pedestrian bicycle" speed="13.89" length="35.80" shape="-17.90,-4.80 17.90,-4.80"/>
        <lane id=":Intersection_37_1" index="1" disallow="pedestrian bicycle" speed="13.89" length="35.80" shape="-17.90,-1.60 17.90,-1.60"/>
    </edge>
    <edge id=":Intersection_39" function="internal">
        <lane id=":Intersection_39_0" index="0" disallow="pedestrian bicycle" speed="11.36" length="29.66" shape="-17.90,-1.60 -11.10,0.20 -4.82,4.82 -0.20,11.10 1.60,17.90"/>
    </edge>
    <edge id=":Intersection_c0" function="crossing" crossingEdges="NB_North SB_North">
        <lane id=":Intersection_c0_0" index="0" allow="pedestrian" speed="2.78" length="16.80" width="8.00" shape="8.40,13.90 -8.40,13.90" outlineShape="8.40,17.90 -8.40,17.90 -8.66,15.00 -9.46,12.62 -10.78,10.78 -12.00,9.90 12.00,9.90 10.78,10.78 9.46,12.62 8.66,15.00"/>
    </edge>
    <edge id=":Intersection_c1" function="crossing" crossingEdges="EB_East WB_East">
        <lane id=":Intersection_c1_0" index="0" allow="pedestrian" speed="2.78" length="16.80" width="8.00" shape="13.90,-8.40 13.90,8.40" outlineShape="17.90,-8.40 17.90,8.40 15.00,8.66 12.62,9.46 10.78,10.78 9.90,12.00 9.90,-12.00 10.78,-10.78 12.62,-9.46 15.00,-8.66"/>
    </edge>
    <edge id=":Intersection_c2" function="crossing" crossingEdges="SB_South NB_South">
        <lane id=":Intersection_c2_0" index="0" allow="pedestrian" speed="2.78" length="16.80" width="8.00" shape="-8.40,-13.90 8.40,-13.90" outlineShape="-8.40,-17.90 8.40,-17.90 8.66,-15.00 9.46,-12.62 10.78,-10.78 12.00,-9.90 -12.00,-9.90 -10.78,-10.78 -9.46,-12.62 -8.66,-15.00"/>
    </edge>
    <edge id=":Intersection_c3" function="crossing" crossingEdges="WB_West EB_West">
        <lane id=":Intersection_c3_0" index="0" allow="pedestrian" speed="2.78" length="16.80" width="8.00" shape="-13.90,8.40 -13.90,-8.40" outlineShape="-17.90,8.40 -17.90,-8.40 -15.00,-8.66 -12.62,-9.46 -10.78,-10.78 -9.90,-12.00 -9.90,12.00 -10.78,10.78 -12.62,9.46 -15.00,8.66"/>
    </edge>
    <edge id=":Intersection_w0" function="walkingarea">
        <lane id=":Intersection_w0_0" index="0" allow="pedestrian" speed="2.78" length="7.68" width="8.00" shape="-17.90,8.40 -17.90,16.40 -16.40,17.90 -8.40,17.90 -8.66,15.00 -9.46,12.62 -10.78,10.78 -12.62,9.46 -15.00,8.66"/>
    </edge>
    <edge id=":Intersection_w1" function="walkingarea">
        <lane id=":Intersection_w1_0" index="0" allow="pedestrian" speed="2.78" length="7.68" width="8.00" shape="8.40,17.90 16.40,17.90 17.90,16.40 17.90,8.40 15.00,8.66 12.62,9.46 10.78,10.78 9.46,12.62 8.66,15.00"/>
    </edge>
    <edge id=":Intersection_w2" function="walkingarea">
        <lane id=":Intersection_w2_0" index="0" allow="pedestrian" speed="2.78" length="7.68" width="8.00" shape="17.90,-8.40 17.90,-16.40 16.40,-17.90 8.40,-17.90 8.66,-15.00 9.46,-12.62 10.78,-10.78 12.62,-9.46 15.00,-8.66"/>
    </edge>
    <edge id=":Intersection_w3" function="walkingarea">
        <lane id=":Intersection_w3_0" index="0" allow="pedestrian" speed="2.78" length="7.68" width="8.00" shape="-8.40,-17.90 -16.40,-17.90 -17.90,-16.40 -17.90,-8.40 -15.00,-8.66 -12.62,-9.46 -10.78,-10.78 -9.46,-12.62 -8.66,-15.00"/>
    </edge>

    <edge id="EB_East" from="Intersection" to="East_out" priority="-1">
        <lane id="EB_East_0" index="0" allow="pedestrian" speed="13.89" length="182.10" width="8.00" shape="17.90,-12.40 200.00,-12.40"/>
        <lane id="EB_East_1" index="1" allow="bicycle" speed="13.89" length="182.10" width="2.00" shape="17.90,-7.40 200.00,-7.40"/>
        <lane id="EB_East_2" index="2" disallow="pedestrian bicycle" speed="13.89" length="182.10" shape="17.90,-4.80 200.00,-4.80"/>
        <lane id="EB_East_3" index="3" disallow="pedestrian bicycle" speed="13.89" length="182.10" shape="17.90,-1.60 200.00,-1.60"/>
    </edge>
    <edge id="EB_West" from="West_in" to="Intersection" priority="-1">
        <lane id="EB_West_0" index="0" allow="pedestrian" speed="13.89" length="182.10" width="8.00" shape="-200.00,-12.40 -17.90,-12.40"/>
        <lane id="EB_West_1" index="1" allow="bicycle" speed="13.89" length="182.10" width="2.00" shape="-200.00,-7.40 -17.90,-7.40"/>
        <lane id="EB_West_2" index="2" disallow="pedestrian bicycle" speed="13.89" length="182.10" shape="-200.00,-4.80 -17.90,-4.80"/>
        <lane id="EB_West_3" index="3" disallow="pedestrian bicycle" speed="13.89" length="182.10" shape="-200.00,-1.60 -17.90,-1.60"/>
    </edge>
    <edge id="NB_North" from="Intersection" to="North_out" priority="-1">
        <lane id="NB_North_0" index="0" allow="pedestrian" speed="13.89" length="182.10" width="8.00" shape="12.40,17.90 12.40,200.00"/>
        <lane id="NB_North_1" index="1" allow="bicycle" speed="13.89" length="182.10" width="2.00" shape="7.40,17.90 7.40,200.00"/>
        <lane id="NB_North_2" index="2" disallow="pedestrian bicycle" speed="13.89" length="182.10" shape="4.80,17.90 4.80,200.00"/>
        <lane id="NB_North_3" index="3" disallow="pedestrian bicycle" speed="13.89" length="182.10" shape="1.60,17.90 1.60,200.00"/>
    </edge>
    <edge id="NB_South" from="South_in" to="Intersection" priority="-1">
        <lane id="NB_South_0" index="0" allow="pedestrian" speed="13.89" length="182.10" width="8.00" shape="12.40,-200.00 12.40,-17.90"/>
        <lane id="NB_South_1" index="1" allow="bicycle" speed="13.89" length="182.10" width="2.00" shape="7.40,-200.00 7.40,-17.90"/>
        <lane id="NB_South_2" index="2" disallow="pedestrian bicycle" speed="13.89" length="182.10" shape="4.80,-200.00 4.80,-17.90"/>
        <lane id="NB_South_3" index="3" disallow="pedestrian bicycle" speed="13.89" length="182.10" shape="1.60,-200.00 1.60,-17.90"/>
    </edge>
    <edge id="SB_North" from="North_in" to="Intersection" priority="-1">
        <lane id="SB_North_0" index="0" allow="pedestrian" speed="13.89" length="182.10" width="8.00" shape="-12.40,200.00 -12.40,17.90"/>
        <lane id="SB_North_1" index="1" allow="bicycle" speed="13.89" length="182.10" width="2.00" shape="-7.40,200.00 -7.40,17.90"/>
        <lane id="SB_North_2" index="2" disallow="pedestrian bicycle" speed="13.89" length="182.10" shape="-4.80,200.00 -4.80,17.90"/>
        <lane id="SB_North_3" index="3" disallow="pedestrian bicycle" speed="13.89" length="182.10" shape="-1.60,200.00 -1.60,17.90"/>
    </edge>
    <edge id="SB_South" from="Intersection" to="South_out" priority="-1">
        <lane id="SB_South_0" index="0" allow="pedestrian" speed="13.89" length="182.10" width="8.00" shape="-12.40,-17.90 -12.40,-200.00"/>
        <lane id="SB_South_1" index="1" allow="bicycle" speed="13.89" length="182.10" width="2.00" shape="-7.40,-17.90 -7.40,-200.00"/>
        <lane id="SB_South_2" index="2" disallow="pedestrian bicycle" speed="13.89" length="182.10" shape="-4.80,-17.90 -4.80,-200.00"/>
        <lane id="SB_South_3" index="3" disallow="pedestrian bicycle" speed="13.89" length="182.10" shape="-1.60,-17.90 -1.60,-200.00"/>
    </edge>
    <edge id="WB_East" from="East_in" to="Intersection" priority="-1">
        <lane id="WB_East_0" index="0" allow="pedestrian" speed="13.89" length="182.10" width="8.00" shape="200.00,12.40 17.90,12.40"/>
        <lane id="WB_East_1" index="1" allow="bicycle" speed="13.89" length="182.10" width="2.00" shape="200.00,7.40 17.90,7.40"/>
        <lane id="WB_East_2" index="2" disallow="pedestrian bicycle" speed="13.89" length="182.10" shape="200.00,4.80 17.90,4.80"/>
        <lane id="WB_East_3" index="3" disallow="pedestrian bicycle" speed="13.89" length="182.10" shape="200.00,1.60 17.90,1.60"/>
    </edge>
    <edge id="WB_West" from="Intersection" to="West_out" priority="-1">
        <lane id="WB_West_0" index="0" allow="pedestrian" speed="13.89" length="182.10" width="8.00" shape="-17.90,12.40 -200.00,12.40"/>
        <lane id="WB_West_1" index="1" allow="bicycle" speed="13.89" length="182.10" width="2.00" shape="-17.90,7.40 -200.00,7.40"/>
        <lane id="WB_West_2" index="2" disallow="pedestrian bicycle" speed="13.89" length="182.10" shape="-17.90,4.80 -200.00,4.80"/>
        <lane id="WB_West_3" index="3" disallow="pedestrian bicycle" speed="13.89" length="182.10" shape="-17.90,1.60 -200.00,1.60"/>
    </edge>

    <junction id="East_in" type="dead_end" x="200.00" y="0.00" incLanes="" intLanes="" shape="200.00,0.00 200.00,16.40"/>
    <junction id="East_out" type="dead_end" x="200.00" y="0.00" incLanes="EB_East_0 EB_East_1 EB_East_2 EB_East_3" intLanes="" shape="200.00,-16.40 200.00,0.00"/>
    <junction id="Intersection" type="allway_stop" x="0.00" y="0.00" incLanes="SB_North_0 SB_North_1 SB_North_2 SB_North_3 WB_East_0 WB_East_1 WB_East_2 WB_East_3 NB_South_0 NB_South_1 NB_South_2 NB_South_3 EB_West_0 EB_West_1 EB_West_2 EB_West_3 :Intersection_w1_0 :Intersection_w2_0 :Intersection_w3_0 :Intersection_w0_0" intLanes=":Intersection_0_0 :Intersection_1_0 :Intersection_2_0 :Intersection_3_0 :Intersection_4_0 :Intersection_5_0 :Intersection_6_0 :Intersection_7_0 :Intersection_7_1 :Intersection_9_0 :Intersection_10_0 :Intersection_11_0 :Intersection_12_0 :Intersection_13_0 :Intersection_14_0 :Intersection_15_0 :Intersection_16_0 :Intersection_17_0 :Intersection_17_1 :Intersection_19_0 :Intersection_20_0 :Intersection_21_0 :Intersection_22_0 :Intersection_23_0 :Intersection_24_0 :Intersection_25_0 :Intersection_26_0 :Intersection_27_0 :Intersection_27_1 :Intersection_29_0 :Intersection_30_0 :Intersection_31_0 :Intersection_32_0 :Intersection_33_0 :Intersection_34_0 :Intersection_35_0 :Intersection_36_0 :Intersection_37_0 :Intersection_37_1 :Intersection_39_0 :Intersection_c0_0 :Intersection_c1_0 :Intersection_c2_0 :Intersection_c3_0" shape="-16.40,17.90 16.40,17.90 16.57,17.07 16.77,16.77 17.07,16.57 17.44,16.44 17.90,16.40 17.90,-16.40 17.07,-16.57 16.77,-16.77 16.57,-17.07 16.44,-17.44 16.40,-17.90 -16.40,-17.90 -16.57,-17.07 -16.77,-16.77 -17.07,-16.57 -17.44,-16.44 -17.90,-16.40 -17.90,16.40 -17.07,16.57 -16.77,16.77 -16.57,17.07 -16.44,17.44">
        <request index="0"  response="10010000000000000000010000000000100000000000" foes="10010000000000000000010000000000100000000000" cont="0"/>
        <request index="1"  response="01011111111111100010010001100101100000000000" foes="01011111111111100010010001100101100001001000" cont="0"/>
        <request index="2"  response="00111110110110011101101111101101100110010000" foes="00111110110110011111111111101101100111011000" cont="0"/>
        <request index="3"  response="10010000000000000010010000000100100000000110" foes="10010000000000000010010000000100100000000110" cont="0"/>
        <request index="4"  response="01011111111110100010010001101101100000000000" foes="01011111111110100010010001101101100001000100" cont="0"/>
        <request index="5"  response="00111110110100011101101011101101100110000000" foes="00111110110100011101111011101101100111000000" cont="0"/>
        <request index="6"  response="10010000000000100010010001100100100000110110" foes="10010000000000100010010001100100100000110110" cont="0"/>
        <request index="7"  response="01011111110110100010010011101101100000000000" foes="01011111110110100010010011101101100000100100" cont="0"/>
        <request index="8"  response="01011111110110100010010011101101100000000000" foes="01011111110110100010010011101101100000100100" cont="0"/>
        <request index="9"  response="00111110100100011101001011101101100000000000" foes="00111110100100011101001011101101100000000000" cont="0"/>
        <request index="10" response="00110000000100000000001000000000000000000000" foes="00110000000100000000001000000000000000000000" cont="0"/>
        <request index="11" response="10101000100100011001011000000000001111111111" foes="10101000100100011001011000010010001111111111" cont="0"/>
        <request index="12" response="01100111011011111011011001100100001110110110" foes="01100111111111111011011001110110001110110110" cont="0"/>
        <request index="13" response="00110000100100000001001000000001100000000000" foes="00110000100100000001001000000001100000000000" cont="0"/>
        <request index="14" response="10101000100100011011011000000000001111111110" foes="10101000100100011011011000010001001111111110" cont="0"/>
        <request index="15" response="01100111011010111011011001100000001110110100" foes="01100111011110111011011001110000001110110100" cont="0"/>
        <request index="16" response="00111000100100011001001000001101100000000000" foes="00111000100100011001001000001101100000000000" cont="0"/>
        <request index="17" response="10101000100100111011011000000000001111110110" foes="10101000100100111011011000001001001111110110" cont="0"/>
        <request index="18" response="10101000100100111011011000000000001111110110" foes="10101000100100111011011000001001001111110110" cont="0"/>
        <request index="19" response="01100111010010111011011000000000001110100100" foes="01100111010010111011011000000000001110100100" cont="0"/>
        <request index="20" response="01100000000010000000000000000000000000000100" foes="01100000000010000000000000000000000000000100" cont="0"/>
        <request index="21" response="01010110010110000000000011111111111000100100" foes="01010110010110000100100011111111111000100100" cont="0"/>
        <request index="22" response="11001110110110011001000011101101100111111111" foes="11001110110110011101100011101101100111111111" cont="0"/>
        <request index="23" response="01100000010010000000011000000000000000100100" foes="01100000010010000000011000000000000000100100" cont="0"/>
        <request index="24" response="01010110110110000000000011111111101000100100" foes="01010110110110000100010011111111101000100100" cont="0"/>
        <request index="25" response="11001110110110011000000011101101000111011110" foes="11001110110110011100000011101101000111011110" cont="0"/>
        <request index="26" response="01100110010010000011011000000000001000100100" foes="01100110010010000011011000000000001000100100" cont="0"/>
        <request index="27" response="01011110110110000000000011111101101000100100" foes="01011110110110000010010011111101101000100100" cont="0"/>
        <request index="28" response="01011110110110000000000011111101101000100100" foes="01011110110110000010010011111101101000100100" cont="0"/>
        <request index="29" response="11001110110110000000000011101001000111010010" foes="11001110110110000000000011101001000111010010" cont="0"/>
        <request index="30" response="11000000000000000000000000000001000000000010" foes="11000000000000000000000000000001000000000010" cont="0"/>
        <request index="31" response="10100000000000111111111110001001000110010110" foes="10100001001000111111111110001001000110010110" cont="0"/>
        <request index="32" response="10010110010000111011011001111111111110110110" foes="10010111011000111011011001111111111110110110" cont="0"/>
        <request index="33" response="11000000000110000000000000001001000000010010" foes="11000000000110000000000000001001000000010010" cont="0"/>
        <request index="34" response="10100000000000111111111010001001000110110110" foes="10100001000100111111111010001001000110110110" cont="0"/>
        <request index="35" response="10010110000000111011010001110111101110110110" foes="10010111000000111011010001110111101110110110" cont="0"/>
        <request index="36" response="11000000110110000000000010001001000110010010" foes="11000000110110000000000010001001000110010010" cont="0"/>
        <request index="37" response="10100000000000111111011010001001001110110110" foes="10100000100100111111011010001001001110110110" cont="0"/>
        <request index="38" response="10100000000000111111011010001001001110110110" foes="10100000100100111111011010001001001110110110" cont="0"/>
        <request index="39" response="10010000000000111010010001110100101110110110" foes="10010000000000111010010001110100101110110110" cont="0"/>
        <request index="40" response="00000000000000000000000000000000000000000000" foes="00001000100100011001001000010010011111111111" cont="0"/>
        <request index="41" response="00000000000000000000000000000000000000000000" foes="00000110010010000100100111111111111000100100" cont="0"/>
        <request index="42" response="00000000000000000000000000000000000000000000" foes="00000001001001111111111110001001000110010010" cont="0"/>
        <request index="43" response="00000000000000000000000000000000000000000000" foes="00001111111111100010010001100100100001001001" cont="0"/>
    </junction>
    <junction id="North_in" type="dead_end" x="0.00" y="200.00" incLanes="" intLanes="" shape="0.00,200.00 -16.40,200.00"/>
    <junction id="North_out" type="dead_end" x="0.00" y="200.00" incLanes="NB_North_0 NB_North_1 NB_North_2 NB_North_3" intLanes="" shape="16.40,200.00 0.00,200.00"/>
    <junction id="South_in" type="dead_end" x="0.00" y="-200.00" incLanes="" intLanes="" shape="0.00,-200.00 16.40,-200.00"/>
    <junction id="South_out" type="dead_end" x="0.00" y="-200.00" incLanes="SB_South_0 SB_South_1 SB_South_2 SB_South_3" intLanes="" shape="-16.40,-200.00 0.00,-200.00"/>
    <junction id="West_in" type="dead_end" x="-200.00" y="0.00" incLanes="" intLanes="" shape="-200.00,0.00 -200.00,-16.40"/>
    <junction id="West_out" type="dead_end" x="-200.00" y="0.00" incLanes="WB_West_0 WB_West_1 WB_West_2 WB_West_3" intLanes="" shape="-200.00,16.40 -200.00,0.00"/>

    <connection from="EB_West" to="SB_South" fromLane="0" toLane="0" via=":Intersection_30_0" dir="r" state="w"/>
    <connection from="EB_West" to="EB_East" fromLane="0" toLane="0" via=":Intersection_31_0" dir="s" state="w"/>
    <connection from="EB_West" to="NB_North" fromLane="0" toLane="0" via=":Intersection_32_0" dir="l" state="w"/>
    <connection from="EB_West" to="SB_South" fromLane="1" toLane="1" via=":Intersection_33_0" dir="r" state="w"/>
    <connection from="EB_West" to="EB_East" fromLane="1" toLane="1" via=":Intersection_34_0" dir="s" state="w"/>
    <connection from="EB_West" to="NB_North" fromLane="1" toLane="1" via=":Intersection_35_0" dir="l" state="w"/>
    <connection from="EB_West" to="SB_South" fromLane="2" toLane="2" via=":Intersection_36_0" dir="r" state="w"/>
    <connection from="EB_West" to="EB_East" fromLane="2" toLane="2" via=":Intersection_37_0" dir="s" state="w"/>
    <connection from="EB_West" to="EB_East" fromLane="3" toLane="3" via=":Intersection_37_1" dir="s" state="w"/>
    <connection from="EB_West" to="NB_North" fromLane="3" toLane="3" via=":Intersection_39_0" dir="l" state="w"/>
    <connection from="NB_South" to="EB_East" fromLane="0" toLane="0" via=":Intersection_20_0" dir="r" state="w"/>
    <connection from="NB_South" to="NB_North" fromLane="0" toLane="0" via=":Intersection_21_0" dir="s" state="w"/>
    <connection from="NB_South" to="WB_West" fromLane="0" toLane="0" via=":Intersection_22_0" dir="l" state="w"/>
    <connection from="NB_South" to="EB_East" fromLane="1" toLane="1" via=":Intersection_23_0" dir="r" state="w"/>
    <connection from="NB_South" to="NB_North" fromLane="1" toLane="1" via=":Intersection_24_0" dir="s" state="w"/>
    <connection from="NB_South" to="WB_West" fromLane="1" toLane="1" via=":Intersection_25_0" dir="l" state="w"/>
    <connection from="NB_South" to="EB_East" fromLane="2" toLane="2" via=":Intersection_26_0" dir="r" state="w"/>
    <connection from="NB_South" to="NB_North" fromLane="2" toLane="2" via=":Intersection_27_0" dir="s" state="w"/>
    <connection from="NB_South" to="NB_North" fromLane="3" toLane="3" via=":Intersection_27_1" dir="s" state="w"/>
    <connection from="NB_South" to="WB_West" fromLane="3" toLane="3" via=":Intersection_29_0" dir="l" state="w"/>
    <connection from="SB_North" to="WB_West" fromLane="0" toLane="0" via=":Intersection_0_0" dir="r" state="w"/>
    <connection from="SB_North" to="SB_South" fromLane="0" toLane="0" via=":Intersection_1_0" dir="s" state="w"/>
    <connection from="SB_North" to="EB_East" fromLane="0" toLane="0" via=":Intersection_2_0" dir="l" state="w"/>
    <connection from="SB_North" to="WB_West" fromLane="1" toLane="1" via=":Intersection_3_0" dir="r" state="w"/>