<?xml version="1.0" encoding="UTF-8"?>

<!-- generated on 2026-03-04 16:06:42 by Eclipse SUMO netedit Version 1.21.0
<neteditConfiguration xmlns:xsi="http://www.w3.org/2001/XMLSchema-instance" xsi:noNamespaceSchemaLocation="http://sumo.dlr.de/xsd/neteditConfiguration.xsd">

    <input>
        <sumo-net-file value="C:\Users\nachu\network_structure\Geometry_Templates\single_intersection\single_intersection_EW2_NS1_stop_sign_template.net.xml"/>
    </input>

    <output>
        <output-file value="C:\Users\nachu\network_structure\Geometry_Templates\single_intersection\single_intersection_EW2_NS1_stop_sign_template.net.xml"/>
    </output>

    <processing>
        <geometry.min-radius.fix.railways value="false"/>
        <geometry.max-grade.fix value="false"/>
        <offset.disable-normalization value="true"/>
        <lefthand value="0"/>
    </processing>

    <junctions>
        <no-internal-links value="false"/>
        <no-turnarounds value="true"/>
        <junctions.corner-detail value="5"/>
        <junctions.limit-turn-speed value="5.50"/>
        <rectangular-lane-cut value="0"/>
    </junctions>

    <pedestrian>
        <walkingareas value="0"/>
    </pedestrian>

</neteditConfiguration>
-->

<net version="1.20" junctionCornerDetail="5" limitTurnSpeed="5.50" xmlns:xsi="http://www.w3.org/2001/XMLSchema-instance" xsi:noNamespaceSchemaLocation="http://sumo.dlr.de/xsd/net_file.xsd">

    <location netOffset="0.00,0.00" convBoundary="-200.00,-200.00,200.00,200.00" origBoundary="-10000000000.00,-10000000000.00,10000000000.00,10000000000.00" projParameter="!"/>

    <edge id=":Intersection_0" function="internal">
        <lane id=":Intersection_0_0" index="0" disallow="pedestrian bicycle" speed="9.65" length="21.13" shape="-1.60,17.90 -2.42,12.17 -4.88,8.08 -8.97,5.62 -14.70,4.80"/>
    </edge>
    <edge id=":Intersection_1" function="internal">
        <lane id=":Intersection_1_0" index="0" disallow="pedestrian bicycle" speed="13.89" length="35.80" shape="-1.60,17.90 -1.60,-17.90"/>
    </edge>
    <edge id=":Intersection_2" function="internal">
        <lane id=":Intersection_2_0" index="0" disallow="pedestrian bicycle" speed="11.22" length="28.91" shape="-1.60,17.90 -0.58,9.37 2.48,3.28 7.57,-0.38 14.70,-1.60"/>
    </edge>
    <edge id=":Intersection_3" function="internal">
        <lane id=":Intersection_3_0" index="0" allow="bicycle" speed="8.60" length="16.93" width="2.00" shape="14.70,7.40 10.11,8.06 6.83,10.03 4.86,13.31 4.20,17.90"/>
    </edge>
    <edge id=":Intersection_4" function="internal">
        <lane id=":Intersection_4_0" index="0" allow="bicycle" speed="13.89" length="29.40" width="2.00" shape="14.70,7.40 -14.70,7.40"/>
    </edge>
    <edge id=":Intersection_5" function="internal">
        <lane id=":Intersection_5_0" index="0" allow="bicycle" speed="12.37" length="35.79" width="2.00" shape="14.70,7.40 6.43,5.82 0.52,1.07 -3.02,-6.83 -4.20,-17.90"/>
    </edge>
    <edge id=":Intersection_6" function="internal">
        <lane id=":Intersection_6_0" index="0" disallow="pedestrian bicycle" speed="9.65" length="21.13" shape="14.70,4.80 8.97,5.62 4.87,8.08 2.42,12.17 1.60,17.90"/>
    </edge>
    <edge id=":Intersection_7" function="internal">
        <lane id=":Intersection_7_0" index="0" disallow="pedestrian bicycle" speed="13.89" length="29.40" shape="14.70,4.80 -14.70,4.80"/>
        <lane id=":Intersection_7_1" index="1" disallow="pedestrian bicycle" speed="13.89" length="29.40" shape="14.70,1.60 -14.70,1.60"/>
    </edge>
    <edge id=":Intersection_9" function="internal">
        <lane id=":Intersection_9_0" index="0" disallow="pedestrian bicycle" speed="11.22" length="28.91" shape="14.70,1.60 7.57,0.38 2.48,-3.28 -0.58,-9.37 -1.60,-17.90"/>
    </edge>
    <edge id=":Intersection_10" function="internal">
        <lane id=":Intersection_10_0" index="0" allow="bicycle" speed="8.60" length="16.93" width="2.00" shape="4.20,-17.90 4.86,-13.31 6.83,-10.03 10.11,-8.06 14.70,-7.40"/>
    </edge>
    <edge id=":Intersection_11" function="internal">
        <lane id=":Intersection_11_0" index="0" allow="bicycle" speed="13.89" length="35.80" width="2.00" shape="4.20,-17.90 4.20,17.90"/>
    </edge>
    <edge id=":Intersection_12" function="internal">
        <lane id=":Intersection_12_0" index="0" allow="bicycle" speed="12.37" length="35.79" width="2.00" shape="4.20,-17.90 3.02,-6.83 -0.53,1.08 -6.43,5.82 -14.70,7.40"/>
    </edge>
    <edge id=":Intersection_13" function="internal">
        <lane id=":Intersection_13_0" index="0" disallow="pedestrian bicycle" speed="9.65" length="21.13" shape="1.60,-17.90 2.42,-12.17 4.88,-8.08 8.97,-5.62 14.70,-4.80"/>
    </edge>
    <edge id=":Intersection_14" function="internal">
        <lane id=":Intersection_14_0" index="0" disallow="pedestrian bicycle" speed="13.89" length="35.80" shape="1.60,-17.90 1.60,17.90"/>
    </edge>
    <edge id=":Intersection_15" function="internal">
        <lane id=":Intersection_15_0" index="0" disallow="pedestrian bicycle" speed="11.22" length="28.91" shape="1.60,-17.90 0.58,-9.37 -2.48,-3.28 -7.57,0.38 -14.70,1.60"/>
    </edge>
    <edge id=":Intersection_16" function="internal">
        <lane id=":Intersection_16_0" index="0" allow="bicycle" speed="8.60" length="16.93" width="2.00" shape="-14.70,-7.40 -10.11,-8.06 -6.83,-10.03 -4.86,-13.31 -4.20,-17.90"/>
    </edge>
    <edge id=":Intersection_17" function="internal">
        <lane id=":Intersection_17_0" index="0" allow="bicycle" speed="13.89" length="29.40" width="2.00" shape="-14.70,-7.40 14.70,-7.40"/>
    </edge>
    <edge id=":Intersection_18" function="internal">
        <lane id=":Intersection_18_0" index="0" allow="bicycle" speed="12.37" length="35.79" width="2.00" shape="-14.70,-7.40 -6.43,-5.82 -0.52,-1.07 3.02,6.83 4.20,17.90"/>
    </edge>
    <edge id=":Intersection_19" function="internal">
        <lane id=":Intersection_19_0" index="0" disallow="pedestrian bicycle" speed="9.65" length="21.13" shape="-14.70,-4.80 -8.97,-5.62 -4.87,-8.08 -2.42,-12.17 -1.60,-17.90"/>
    </edge>
    <edge id=":Intersection_20" function="internal">
        <lane id=":Intersection_20_0" index="0" disallow="pedestrian bicycle" speed="13.89" length="29.40" shape="-14.70,-4.80 14.70,-4.80"/>
        <lane id=":Intersection_20_1" index="1" disallow="pedestrian bicycle" speed="13.89" length="29.40" shape="-14.70,-1.60 14.70,-1.60"/>
    </edge>
    <edge id=":Intersection_22" function="internal">
        <lane id=":Intersection_22_0" index="0" disallow="pedestrian bicycle" speed="11.22" length="28.91" shape="-14.70,-1.60 -7.57,-0.38 -2.48,3.28 0.58,9.37 1.60,17.90"/>
    </edge>
    <edge id=":Intersection_c0" function="crossing" crossingEdges="NB_North SB_North">
        <lane id=":Intersection_c0_0" index="0" allow="pedestrian" speed="2.78" length="10.40" width="8.00" shape="5.20,13.90 -5.20,13.90" outlineShape="5.20,17.90 -5.30,17.90 -5.20,17.90 -5.46,15.00 -6.26,12.62 -7.58,10.78 -8.80,9.90 8.80,9.90 7.58,10.78 6.26,12.62 5.46,15.00"/>
    </edge>
    <edge id=":Intersection_c1" function="crossing" crossingEdges="EB_East WB_East">
        <lane id=":Intersection_c1_0" index="0" allow="pedestrian" speed="2.78" length="16.80" width="8.00" shape="10.70,-8.40 10.70,8.40" outlineShape="14.70,-8.40 14.70,8.40 11.80,8.66 9.42,9.46 7.58,10.78 6.70,12.00 6.70,-12.00 7.58,-10.78 9.42,-9.46 11.80,-8.66"/>
    </edge>
    <edge id=":Intersection_c2" function="crossing" crossingEdges="SB_South NB_South">
        <lane id=":Intersection_c2_0" index="0" allow="pedestrian" speed="2.78" length="10.40" width="8.00" shape="-5.20,-13.90 5.20,-13.90" outlineShape="-5.20,-17.90 5.30,-17.90 5.20,-17.90 5.46,-15.00 6.26,-12.62 7.58,-10.78 8.80,-9.90 -8.80,-9.90 -7.58,-10.78 -6.26,-12.62 -5.46,-15.00"/>
    </edge>
    <edge id=":Intersection_c3" function="crossing" crossingEdges="WB_West EB_West">
        <lane id=":Intersection_c3_0" index="0" allow="pedestrian" speed="2.78" length="16.80" width="8.00" shape="-10.70,8.40 -10.70,-8.40" outlineShape="-14.70,8.40 -14.70,-8.40 -11.80,-8.66 -9.42,-9.46 -7.58,-10.78 -6.70,-12.00 -6.70,12.00 -7.58,10.78 -9.42,9.46 -11.80,8.66"/>
    </edge>
    <edge id=":Intersection_w0" function="walkingarea">
        <lane id=":Intersection_w0_0" index="0" allow="pedestrian" speed="2.78" length="7.68" width="8.00" shape="-14.70,8.40 -14.70,16.40 -13.20,17.90 -5.20,17.90 -5.46,15.00 -6.26,12.62 -7.58,10.78 -9.42,9.46 -11.80,8.66"/>
    </edge>
    <edge id=":Intersection_w1" function="walkingarea">
        <lane id=":Intersection_w1_0" index="0" allow="pedestrian" speed="2.78" length="7.68" width="8.00" shape="5.20,17.90 13.20,17.90 14.70,16.40 14.70,8.40 11.80,8.66 9.42,9.46 7.58,10.78 6.26,12.62 5.46,15.00"/>
    </edge>
    <edge id=":Intersection_w2" function="walkingarea">
        <lane id=":Intersection_w2_0" index="0" allow="pedestrian" speed="2.78" length="7.68" width="8.00" shape="14.70,-8.40 14.70,-16.40 13.20,-17.90 5.20,-17.90 5.46,-15.00 6.26,-12.62 7.58,-10.78 9.42,-9.46 11.80,-8.66"/>
    </edge>
    <edge id=":Intersection_w3" function="walkingarea">
        <lane id=":Intersection_w3_0" index="0" allow="pedestrian" speed="2.78" length="7.68" width="8.00" shape="-5.20,-17.90 -13.20,-17.90 -14.70,-16.40 -14.70,-8.40 -11.80,-8.66 -9.42,-9.46 -7.58,-10.78 -6.26,-12.62 -5.46,-15.00"/>
    </edge>

    <edge id="EB_East" from="Intersection" to="East_out" priority="-1">
        <lane id="EB_East_0" index="0" allow="pedestrian" speed="13.89" length="185.30" width="8.00" shape="14.70,-12.40 200.00,-12.40"/>
        <lane id="EB_East_1" index="1" allow="bicycle" speed="13.89" length="185.30" width="2.00" shape="14.70,-7.40 200.00,-7.40"/>
        <lane id="EB_East_2" index="2" disallow="pedestrian bicycle" speed="13.89" length="185.30" shape="14.70,-4.80 200.00,-4.80"/>
        <lane id="EB_East_3" index="3" disallow="pedestrian bicycle" speed="13.89" length="185.30" shape="14.70,-1.60 200.00,-1.60"/>
    </edge>
    <edge id="EB_West" from="West_in" to="Intersection" priority="-1">
        <lane id="EB_West_0" index="0" allow="pedestrian" speed="13.89" length="185.30" width="8.00" shape="-200.00,-12.40 -14.70,-12.40"/>
        <lane id="EB_West_1" index="1" allow="bicycle" speed="13.89" length="185.30" width="2.00" shape="-200.00,-7.40 -14.70,-7.40"/>
        <lane id="EB_West_2" index="2" disallow="pedestrian bicycle" speed="13.89" length="185.30" shape="-200.00,-4.80 -14.70,-4.80"/>
        <lane id="EB_West_3" index="3" disallow="pedestrian bicycle" speed="13.89" length="185.30" shape="-200.00,-1.60 -14.70,-1.60"/>
    </edge>
    <edge id="NB_North" from="Intersection" to="North_out" priority="-1">
        <lane id="NB_North_0" index="0" allow="pedestrian" speed="13.89" length="182.10" width="8.00" shape="9.20,17.90 9.20,200.00"/>
        <lane id="NB_North_1" index="1" allow="bicycle" speed="13.89" length="182.10" width="2.00" shape="4.20,17.90 4.20,200.00"/>
        <lane id="NB_North_2" index="2" disallow="pedestrian bicycle" speed="13.89" length="182.10" shape="1.60,17.90 1.60,200.00"/>
    </edge>
    <edge id="NB_South" from="South_in" to="Intersection" priority="-1">
        <lane id="NB_South_0" index="0" allow="pedestrian" speed="13.89" length="182.10" width="8.00" shape="9.20,-200.00 9.20,-17.90"/>
        <lane id="NB_South_1" index="1" allow="bicycle" speed="13.89" length="182.10" width="2.00" shape="4.20,-200.00 4.20,-17.90"/>
        <lane id="NB_South_2" index="2" disallow="pedestrian bicycle" speed="13.89" length="182.10" shape="1.60,-200.00 1.60,-17.90"/>
    </edge>
    <edge id="SB_North" from="North_in" to="Intersection" priority="-1">
        <lane id="SB_North_0" index="0" allow="pedestrian" speed="13.89" length="182.10" width="8.00" shape="-9.20,200.00 -9.20,17.90"/>
        <lane id="SB_North_1" index="1" allow="bicycle" speed="13.89" length="182.10" width="2.00" shape="-4.20,200.00 -4.20,17.90"/>
        <lane id="SB_North_2" index="2" disallow="pedestrian bicycle" speed="13.89" length="182.10" shape="-1.60,200.00 -1.60,17.90"/>
    </edge>
    <edge id="SB_South" from="Intersection" to="South_out" priority="-1">
        <lane id="SB_South_0" index="0" allow="pedestrian" speed="13.89" length="182.10" width="8.00" shape="-9.20,-17.90 -9.20,-200.00"/>
        <lane id="SB_South_1" index="1" allow="bicycle" speed="13.89" length="182.10" width="2.00" shape="-4.20,-17.90 -4.20,-200.00"/>
        <lane id="SB_South_2" index="2" disallow="pedestrian bicycle" speed="13.89" length="182.10" shape="-1.60,-17.90 -1.60,-200.00"/>
    </edge>
    <edge id="WB_East" from="East_in" to="Intersection" priority="-1">
        <lane id="WB_East_0" index="0" allow="pedestrian" speed="13.89" length="185.30" width="8.00" shape="200.00,12.40 14.70,12.40"/>
        <lane id="WB_East_1" index="1" allow="bicycle" speed="13.89" length="185.30" width="2.00" shape="200.00,7.40 14.70,7.40"/>
        <lane id="WB_East_2" index="2" disallow="pedestrian bicycle" speed="13.89" length="185.30" shape="200.00,4.80 14.70,4.80"/>
        <lane id="WB_East_3" index="3" disallow="pedestrian bicycle" speed="13.89" length="185.30" shape="200.00,1.60 14.70,1.60"/>
    </edge>
    <edge id="WB_West" from="Intersection" to="West_out" priority="-1">
        <lane id="WB_West_0" index="0" allow="pedestrian" speed="13.89" length="185.30" width="8.00" shape="-14.70,12.40 -200.00,12.40"/>
        <lane id="WB_West_1" index="1" allow="bicycle" speed="13.89" length="185.30" width="2.00" shape="-14.70,7.40 -200.00,7.40"/>
        <lane id="WB_West_2" index="2" disallow="pedestrian bicycle" speed="13.89" length="185.30" shape="-14.70,4.80 -200.00,4.80"/>
        <lane id="WB_West_3" index="3" disallow="pedestrian bicycle" speed="13.89" length="185.30" shape="-14.70,1.60 -200.00,1.60"/>
    </edge>

    <junction id="East_in" type="dead_end" x="200.00" y="0.00" incLanes="" intLanes="" shape="200.00,0.00 200.00,16.40"/>
    <junction id="East_out" type="dead_end" x="200.00" y="0.00" incLanes="EB_East_0 EB_East_1 EB_East_2 EB_East_3" intLanes="" shape="200.00,-16.40 200.00,0.00"/>
    <junction id="Intersection" type="allway_stop" x="0.00" y="0.00" incLanes="SB_North_0 SB_North_1 SB_North_2 WB_East_0 WB_East_1 WB_East_2 WB_East_3 NB_South_0 NB_South_1 NB_South_2 EB_West_0 EB_West_1 EB_West_2 EB_West_3 :Intersection_w1_0 :Intersection_w2_0 :Intersection_w3_0 :Intersection_w0_0" intLanes=":Intersection_0_0 :Intersection_1_0 :Intersection_2_0 :Intersection_3_0 :Intersection_4_0 :Intersection_5_0 :Intersection_6_0 :Intersection_7_0 :Intersection_7_1 :Intersection_9_0 :Intersection_10_0 :Intersection_11_0 :Intersection_12_0 :Intersection_13_0 :Intersection_14_0 :Intersection_15_0 :Intersection_16_0 :Intersection_17_0 :Intersection_18_0 :Intersection_19_0 :Intersection_20_0 :Intersection_20_1 :Intersection_22_0 :Intersection_c0_0 :Intersection_c1_0 :Intersection_c2_0 :Intersection_c3_0" shape="-13.20,17.90 13.20,17.90 13.37,17.07 13.57,16.78 13.87,16.57 14.24,16.44 14.70,16.40 14.70,-16.40 13.87,-16.57 13.58,-16.77 13.37,-17.07 13.24,-17.44 13.20,-17.90 -13.20,-17.90 -13.37,-17.07 -13.57,-16.78 -13.87,-16.57 -14.24,-16.44 -14.70,-16.40 -14.70,16.40 -13.87,16.57 -13.58,16.77 -13.37,17.07 -13.24,17.44">
        <request index="0"  response="100100000000001000110010000" foes="100100000000001000110010000" cont="0"/>
        <request index="1"  response="010111111101001001110110000" foes="010111111101001001110110000" cont="0"/>
        <request index="2"  response="001111101000100101110110000" foes="001111101000100101110110000" cont="0"/>
        <request index="3"  response="001100001000000100000000000" foes="001100001000000100000000000" cont="0"/>
        <request index="4"  response="101010001000101100000000111" foes="101010001000101100001000111" cont="0"/>
        <request index="5"  response="011001110111101100110000110" foes="011001111111101100111000110" cont="0"/>
        <request index="6"  response="001110001000100100000110000" foes="001110001000100100000110000" cont="0"/>
        <request index="7"  response="101010001001101100000000111" foes="101010001001101100000100111" cont="0"/>
        <request index="8"  response="101010001001101100000000111" foes="101010001001101100000100111" cont="0"/>
        <request index="9"  response="011001110101101100000000110" foes="011001110101101100000000110" cont="0"/>
        <request index="10" response="011000000100000000000000000" foes="011000000100000000000000000" cont="0"/>
        <request index="11" response="010101101100000001111111100" foes="010101101100010001111111100" cont="0"/>
        <request index="12" response="110011101100100001110110011" foes="110011101100110001110110011" cont="0"/>
        <request index="13" response="011001100100001100000000000" foes="011001100100001100000000000" cont="0"/>
        <request index="14" response="010111101100000001111110100" foes="010111101100001001111110100" cont="0"/>
        <request index="15" response="110011101100000001110100010" foes="110011101100000001110100010" cont="0"/>
        <request index="16" response="110000000000000000000100000" foes="110000000000000000000100000" cont="0"/>
        <request index="17" response="101000000001111111000100010" foes="101000010001111111000100010" cont="0"/>
        <request index="18" response="100101100001101100111111110" foes="100101110001101100111111110" cont="0"/>
        <request index="19" response="110000001100000001000100010" foes="110000001100000001000100010" cont="0"/>
        <request index="20" response="101000000001111101000100110" foes="101000001001111101000100110" cont="0"/>
        <request index="21" response="101000000001111101000100110" foes="101000001001111101000100110" cont="0"/>
        <request index="22" response="100100000001101000111010110" foes="100100000001101000111010110" cont="0"/>
        <request index="23" response="000000000000000000000000000" foes="000010001000100100001001111" cont="0"/>
        <request index="24" response="000000000000000000000000000" foes="000001100100010011111111100" cont="0"/>
        <request index="25" response="000000000000000000000000000" foes="000000010011111111000100010" cont="0"/>
        <request index="26" response="000000000000000000000000000" foes="000011111111001000110010001" cont="0"/>
    </junction>
    <junction id="North_in" type="dead_end" x="0.00" y="200.00" incLanes="" intLanes="" shape="0.00,200.00 -13.20,200.00"/>
    <junction id="North_out" type="dead_end" x="0.00" y="200.00" incLanes="NB_North_0 NB_North_1 NB_North_2" intLanes="" shape="13.20,200.00 0.00,200.00"/>
    <junction id="South_in" type="dead_end" x="0.00" y="-200.00" incLanes="" intLanes="" shape="0.00,-200.00 13.20,-200.00"/>
    <junction id="South_out" type="dead_end" x="0.00" y="-200.00" incLanes="SB_South_0 SB_South_1 SB_South_2" intLanes="" shape="-13.20,-200.00 0.00,-200.00"/>
    <junction id="West_in" type="dead_end" x="-200.00" y="0.00" incLanes="" intLanes="" shape="-200.00,0.00 -200.00,-16.40"/>
    <junction id="West_out" type="dead_end" x="-200.00" y="0.00" incLanes="WB_West_0 WB_West_1 WB_West_2 WB_West_3" intLanes="" shape="-200.00,16.40 -200.00,0.00"/>

    <connection from="EB_West" to="SB_South" fromLane="1" toLane="1" via=":Intersection_16_0" dir="r" state="w"/>
    <connection from="EB_West" to="EB_East" fromLane="1" toLane="1" via=":Intersection_17_0" dir="s" state="w"/>
    <connection from="EB_West" to="NB_North" fromLane="1" toLane="1" via=":Intersection_18_0" dir="l" state="w"/>
    <connection from="EB_West" to="SB_South" fromLane="2" toLane="2" via=":Intersection_19_0" dir="r" state="w"/>
    <connection from="EB_West" to="EB_East" fromLane="2" toLane="2" via=":Intersection_20_0" dir="s" state="w"/>
    <connection from="EB_West" to="EB_East" fromLane="3" toLane="3" via=":Intersection_20_1" dir="s" state="w"/>
    <connection from="EB_West" to="NB_North" fromLane="3" toLane="2" via=":Intersection_22_0" dir="l" state="w"/>
    <connection from="NB_South" to="EB_East" fromLane="1" toLane="1" via=":Intersection_10_0" dir="r" state="w"/>
    <connection from="NB_South" to="NB_North" fromLane="1" toLane="1" via=":Intersection_11_0" dir="s" state="w"/>
    <connection from="NB_South" to="WB_West" fromLane="1" toLane="1" via=":Intersection_12_0" dir="l" state="w"/>
    <connection from="NB_South" to="EB_East" fromLane="2" toLane="2" via=":Intersection_13_0" dir="r" state="w"/>
    <connection from="NB_South" to="NB_North" fromLane="2" toLane="2" via=":Intersection_14_0" dir="s" state="w"/>
    <connection from="NB_South" to="WB_West" fromLane="2" toLane="3" via=":Intersection_15_0" dir="l" state="w"/>
    <connection from="SB_North" to="WB_West" fromLane="2" toLane="2" via=":Intersection_0_0" dir="r" state="w"/>
    <connection from="SB_North" to="SB_South" fromLane="2" toLane="2" via=":Intersection_1_0" dir="s" state="w"/>
    <connection from="SB_North" to="EB_East" fromLane="2" toLane="3" via=":Intersection_2_0" dir="l" state="w"/>
    <connection from="WB_East" to="NB_North" fromLane="1" toLane="1" via=":Intersection_3_0" dir="r" state="w"/>
    <connection from="WB_East" to="WB_West" fromLane="1" toLane="1" via=":Intersection_4_0" dir="s" state="w"/>
    <connection from="WB_East" to="SB_South" fromLane="1" toLane="1" via=":Intersection_5_0" dir="l" state="w"/>
    <connection from="WB_East" to="NB_North" fromLane="2" toLane="2" via=":Intersection_6_0" dir="r" state="w"/>
    <connection from="WB_East" to="WB_West" fromLane="2" toLane="2" via=":Intersection_7_0" dir="s" state="w"/>
    <connection from="WB_East" to="WB_West" fromLane="3" toLane="3" via=":Intersection_7_1" dir="s" state="w"/>
    <connection from="WB_East" to="SB_South" fromLane="3" toLane="2" via=":Intersection_9_0" dir="l" state="w"/>

    <connection from=":Intersection_0" to="WB_West" fromLane="0" toLane="2" dir="r" state="M"/>
    <connection from=":Intersection_1" to="SB_South" fromLane="0" toLane="2" dir="s" state="M"/>
    <connection from=":Intersection_2" to="EB_East" fromLane="0" toLane="3" dir="l" state="M"/>
    <connection from=":Intersection_3" to="NB_North" fromLane="0" toLane="1" dir="r" state="M"/>
    <connection from=":Intersection_4" to="WB_West" fromLane="0" toLane="1" dir="s" state="M"/>
    <connection from=":Intersection_5" to="SB_South" fromLane="0" toLane="1" dir="l" state="M"/>
    <connection from=":Intersection_6" to="NB_North" fromLane="0" toLane="2" dir="r" state="M"/>
    <connection from=":Intersection_7" to="WB_West" fromLane="0" toLane="2" dir="s" state="M"/>
    <connection from=":Intersection_7" to="WB_West" fromLane="1" toLane="3" dir="s" state="M"/>
    <connection from=":Intersection_9" to="SB_South" fromLane="0" toLane="2" dir="l" state="M"/>
    <connection from=":Intersection_10" to="EB_East" fromLane="0" toLane="1" dir="r" state="M"/>
    <connection from=":Intersection_11" to="NB_North" fromLane="0" toLane="1" dir="s" state="M"/>
    <connection from=":Intersection_12" to="WB_West" fromLane="0" toLane="1" dir="l" state="M"/>
    <connection from=":Intersection_13" to="EB_East" fromLane="0" toLane="2" dir="r" state="M"/>
    <connection from=":Intersection_14" to="NB_North" fromLane="0" toLane="2" dir="s" state="M"/>
    <connection from=":Intersection_15" to="WB_West" fromLane="0" toLane="3" dir="l" state="M"/>
    <connection from=":Intersection_16" to="SB_South" fromLane="0" toLane="1" dir="r" state="M"/>
    <connection from=":Intersection_17" to="EB_East" fromLane="0" toLane="1" dir="s" state="M"/>
    <connection from=":Intersection_18" to="NB_North" fromLane="0" toLane="1" dir="l" state="M"/>
    <connection from=":Intersection_19" to="SB_South" fromLane="0" toLane="2" dir="r" state="M"/>
    <connection from=":Intersection_20" to="EB_East" fromLane="0" toLane="2" dir="s" state="M"/>
    <connection from=":Intersection_20" to="EB_East" fromLane="1" toLane="3" dir="s" state="M"/>
    <connection from=":Intersection_22" to="NB_North" fromLane="0" toLane="2" dir="l" state="M"/>

    <connection from=":Intersection_c0" to=":Intersection_w0" fromLane="0" toLane="0" dir="s" state="M"/>
    <connection from=":Intersection_c1" to=":Intersection_w1" fromLane="0" toLane="0" dir="s" state="M"/>
    <connection from=":Intersection_c2" to=":Intersection_w2" fromLane="0" toLane="0" dir="s" state="M"/>
    <connection from=":Intersection_c3" to=":Intersection_w3" fromLane="0" toLane="0" dir="s" state="M"/>
    <connection from=":Intersection_w0" to=":Intersection_c3" fromLane="0" toLane="0" dir="s" state="M"/>
    <connection from=":Intersection_w0" to="WB_West" fromLane="0" toLane="0" dir="s" state="M"/>
    <connection from="SB_North" to=":Intersection_w0" fromLane="0" toLane="0" dir="s" state="M"/>
    <connection from=":Intersection_w1" to=":Intersection_c0" fromLane="0" toLane="0" dir="s" state="M"/>
    <connection from=":Intersection_w1" to="NB_North" fromLane="0" toLane="0" dir="s" state="M"/>
    <connection from="WB_East" to=":Intersection_w1" fromLane="0" toLane="0" dir="s" state="M"/>
    <connection from=":Intersection_w2" to=":Intersection_c1" fromLane="0" toLane="0" dir="s" state="M"/>
    <connection from=":Intersection_w2" to="EB_East" fromLane="0" toLane="0" dir="s" state="M"/>
    <connection from="NB_South" to=":Intersection_w2" fromLane="0" toLane="0" dir="s" state="M"/>
    <connection from=":Intersection_w3" to=":Intersection_c2" fromLane="0" toLane="0" dir="s" state="M"/>
    <connection from=":Intersection_w3" to="SB_South" fromLane="0" toLane="0" dir="s" state="M"/>
    <connection from="EB_West" to=":Intersection_w3" fromLane="0" toLane="0" dir="s" state="M"/>
</net>
